REMARK  8 active torsions:
REMARK  status: ('A' for Active; 'I' for Inactive)
REMARK    1  A    between atoms: O_1  and  C_10 
REMARK    2  A    between atoms: O_1  and  C_20 
REMARK    3  A    between atoms: O_2  and  C_27 
REMARK    4  A    between atoms: O_2  and  C_28 
REMARK    5  A    between atoms: O_3  and  C_21 
REMARK    6  A    between atoms: O_4  and  C_22 
REMARK    7  A    between atoms: C_9  and  C_11 
REMARK    8  A    between atoms: C_11  and  C_21 
ROOT
ATOM      1  O   UNL d   1      -1.514   1.312   0.728  0.00  0.00    -0.292 OA
ENDROOT
BRANCH   1   2
ATOM      2  C   UNL d   1      -2.510   1.627  -0.169  0.00  0.00     0.089 A 
ATOM      3  C   UNL d   1      -3.422   0.651  -0.607  0.00  0.00     0.016 A 
ATOM      4  C   UNL d   1      -4.439   1.038  -1.493  0.00  0.00     0.015 A 
ATOM      5  C   UNL d   1      -4.550   2.367  -1.913  0.00  0.00     0.001 A 
ATOM      6  C   UNL d   1      -3.652   3.327  -1.448  0.00  0.00     0.003 A 
ATOM      7  C   UNL d   1      -2.634   2.960  -0.570  0.00  0.00     0.038 A 
BRANCH   3   8
ATOM      8  C   UNL d   1      -3.333  -0.747  -0.144  0.00  0.00     0.074 C 
ATOM      9  C   UNL d   1      -3.062  -1.758  -0.989  0.00  0.00     0.152 C 
BRANCH   8  10
ATOM     10  C   UNL d   1      -3.474  -1.119   1.293  0.00  0.00     0.295 C 
ATOM     11  O   UNL d   1      -3.106  -2.184   1.770  0.00  0.00    -0.259 OA
BRANCH  10  12
ATOM     12  O   UNL d   1      -4.086  -0.122   1.982  0.00  0.00    -0.322 OA
ATOM     13  C   UNL d   1      -4.268  -0.395   3.370  0.00  0.00     0.213 C 
ENDBRANCH  10  12
ENDBRANCH   8  10
BRANCH   9  14
ATOM     14  O   UNL d   1      -2.889  -1.602  -2.341  0.00  0.00    -0.367 OA
ATOM     15  C   UNL d   1      -1.883  -2.477  -2.845  0.00  0.00     0.208 C 
ENDBRANCH   9  14
ENDBRANCH   3   8
ENDBRANCH   1   2
BRANCH   1  16
ATOM     16  C   UNL d   1      -0.320   0.847   0.180  0.00  0.00     0.165 A 
ATOM     17  N   UNL d   1      -0.095   0.946  -1.144  0.00  0.00    -0.232 NA
ATOM     18  C   UNL d   1       1.085   0.482  -1.567  0.00  0.00     0.268 A 
ATOM     19  N   UNL d   1       2.038  -0.061  -0.800  0.00  0.00    -0.232 NA
ATOM     20  C   UNL d   1       1.755  -0.123   0.515  0.00  0.00     0.165 A 
ATOM     21  C   UNL d   1       0.580   0.318   1.071  0.00  0.00     0.138 A 
BRANCH  20  22
ATOM     22  O   UNL d   1       2.684  -0.664   1.403  0.00  0.00    -0.291 OA
BRANCH  22  23
ATOM     23  C   UNL d   1       3.928  -0.940   0.883  0.00  0.00     0.098 A 
ATOM     24  C   UNL d   1       4.900   0.056   0.733  0.00  0.00     0.078 A 
ATOM     25  C   UNL d   1       6.165  -0.291   0.241  0.00  0.00     0.025 A 
ATOM     26  C   UNL d   1       4.631   1.419   1.085  0.00  0.00     0.102 C 
ATOM     27  C   UNL d   1       6.455  -1.620  -0.079  0.00  0.00     0.002 A 
ATOM     28  C   UNL d   1       5.487  -2.610   0.095  0.00  0.00     0.003 A 
ATOM     29  C   UNL d   1       4.225  -2.273   0.584  0.00  0.00     0.039 A 
ATOM     30  N   UNL d   1       4.426   2.523   1.378  0.00  0.00    -0.191 NA
ENDBRANCH  22  23
ENDBRANCH  20  22
ENDBRANCH   1  16
TORSDOF 8
