@<TRIPOS>MOLECULE
*****
 47 49 0 0 0
SMALL
GASTEIGER

@<TRIPOS>ATOM
      1 O          -1.5141    1.3117    0.7280 O.3     1  UNL1       -0.4372
      2 O           2.6841   -0.6637    1.4030 O.3     1  UNL1       -0.4365
      3 O          -4.0861   -0.1215    1.9816 O.3     1  UNL1       -0.4644
      4 O          -2.8887   -1.6023   -2.3411 O.2     1  UNL1       -0.5018
      5 O          -3.1055   -2.1841    1.7703 O.2     1  UNL1       -0.2448
      6 N          -0.0950    0.9458   -1.1437 N.ar    1  UNL1       -0.2009
      7 N           2.0376   -0.0609   -0.8002 N.ar    1  UNL1       -0.2009
      8 N           4.4260    2.5235    1.3781 N.1     1  UNL1       -0.1907
      9 C          -3.4221    0.6511   -0.6066 C.ar    1  UNL1        0.0342
     10 C          -2.5100    1.6268   -0.1692 C.ar    1  UNL1        0.1383
     11 C          -3.3325   -0.7474   -0.1439 C.2     1  UNL1        0.1037
     12 C          -4.4387    1.0384   -1.4931 C.ar    1  UNL1       -0.0502
     13 C          -2.6340    2.9604   -0.5703 C.ar    1  UNL1       -0.0187
     14 C          -4.5503    2.3673   -1.9126 C.ar    1  UNL1       -0.0610
     15 C          -3.6519    3.3274   -1.4485 C.ar    1  UNL1       -0.0582
     16 C          -0.3203    0.8471    0.1800 C.ar    1  UNL1        0.2270
     17 C          -3.4739   -1.1192    1.2929 C.2     1  UNL1        0.3426
     18 C          -3.0616   -1.7583   -0.9885 C.2     1  UNL1        0.0987
     19 C           0.5796    0.3176    1.0710 C.ar    1  UNL1        0.0623
     20 C           1.7551   -0.1227    0.5155 C.ar    1  UNL1        0.2270
     21 C           3.9278   -0.9404    0.8832 C.ar    1  UNL1        0.1476
     22 C           4.9003    0.0562    0.7327 C.ar    1  UNL1        0.0940
     23 C           4.2248   -2.2730    0.5835 C.ar    1  UNL1       -0.0180
     24 C           6.1653   -0.2914    0.2411 C.ar    1  UNL1       -0.0408
     25 C           5.4872   -2.6095    0.0950 C.ar    1  UNL1       -0.0582
     26 C           6.4553   -1.6202   -0.0794 C.ar    1  UNL1       -0.0603
     27 C           1.0848    0.4822   -1.5671 C.ar    1  UNL1        0.1236
     28 C          -4.2681   -0.3949    3.3701 C.3     1  UNL1        0.0820
     29 C          -1.8831   -2.4770   -2.8449 C.3     1  UNL1        0.0780
     30 C           4.6307    1.4188    1.0850 C.1     1  UNL1        0.1028
     31 H          -5.1512    0.3044   -1.8634 H       1  UNL1        0.0625
     32 H          -1.9307    3.7050   -0.2089 H       1  UNL1        0.0654
     33 H          -5.3414    2.6519   -2.6018 H       1  UNL1        0.0618
     34 H          -3.7426    4.3605   -1.7734 H       1  UNL1        0.0619
     35 H          -2.9798   -2.7896   -0.6618 H       1  UNL1        0.1031
     36 H           0.3782    0.2559    2.1300 H       1  UNL1        0.0725
     37 H           3.4716   -3.0441    0.7219 H       1  UNL1        0.0655
     38 H           6.9334    0.4687    0.1094 H       1  UNL1        0.0632
     39 H           5.7167   -3.6441   -0.1492 H       1  UNL1        0.0619
     40 H           7.4391   -1.8848   -0.4609 H       1  UNL1        0.0618
     41 H           1.2872    0.5530   -2.6301 H       1  UNL1        0.1049
     42 H          -3.3018   -0.5470    3.8613 H       1  UNL1        0.0661
     43 H          -4.7545    0.4722    3.8253 H       1  UNL1        0.0661
     44 H          -4.9151   -1.2669    3.5074 H       1  UNL1        0.0661
     45 H          -2.1970   -3.5225   -2.7556 H       1  UNL1        0.0660
     46 H          -0.9312   -2.3183   -2.3262 H       1  UNL1        0.0660
     47 H          -1.7382   -2.2521   -3.9055 H       1  UNL1        0.0660
@<TRIPOS>BOND
     1     1    10    1
     2     1    16    1
     3     2    20    1
     4     2    21    1
     5     3    17    1
     6     3    28    1
     7     4    18    1
     8     4    29    1
     9     5    17    2
    10     6    16   ar
    11     6    27   ar
    12     7    20   ar
    13     7    27   ar
    14     8    30    3
    15     9    10   ar
    16     9    11    1
    17     9    12   ar
    18    10    13   ar
    19    11    17    1
    20    11    18    2
    21    12    14   ar
    22    12    31    1
    23    13    15   ar
    24    13    32    1
    25    14    15   ar
    26    14    33    1
    27    15    34    1
    28    16    19   ar
    29    18    35    1
    30    19    20   ar
    31    19    36    1
    32    21    22   ar
    33    21    23   ar
    34    22    24   ar
    35    22    30    1
    36    23    25   ar
    37    23    37    1
    38    24    26   ar
    39    24    38    1
    40    25    26   ar
    41    25    39    1
    42    26    40    1
    43    27    41    1
    44    28    42    1
    45    28    43    1
    46    28    44    1
    47    29    45    1
    48    29    46    1
    49    29    47    1
