REMARK  10 active torsions:
REMARK  status: ('A' for Active; 'I' for Inactive)
REMARK    1  A    between atoms: O_2  and  C_29 
REMARK    2  A    between atoms: O_2  and  C_36 
REMARK    3  A    between atoms: O_4  and  C_50 
REMARK    4  A    between atoms: O_5  and  C_51 
REMARK    5  A    between atoms: C_7  and  C_10 
REMARK    6  A    between atoms: C_7  and  C_11 
REMARK    7  A    between atoms: C_11  and  C_16 
REMARK    8  A    between atoms: C_36  and  C_39 
REMARK    9  A    between atoms: C_40  and  C_45 
REMARK   10  A    between atoms: C_45  and  C_50 
ROOT
ATOM      1  O   UNL d   1      -2.794  -1.135   1.389  0.00  0.00    -0.274 OA
ATOM      2  O   UNL d   1      -4.859  -2.040   1.641  0.00  0.00    -0.259 OA
ATOM      3  C   UNL d   1      -4.768   0.105   0.610  0.00  0.00     0.024 A 
ATOM      4  C   UNL d   1      -4.000   1.125   0.166  0.00  0.00    -0.037 A 
ATOM      5  C   UNL d   1      -2.537   1.050   0.345  0.00  0.00     0.005 A 
ATOM      6  C   UNL d   1      -1.985  -0.076   0.949  0.00  0.00     0.092 A 
ATOM      7  C   UNL d   1      -4.169  -1.102   1.252  0.00  0.00     0.295 A 
ATOM      8  C   UNL d   1      -4.549   2.346  -0.529  0.00  0.00     0.050 C 
ATOM      9  C   UNL d   1      -1.648   2.057  -0.052  0.00  0.00     0.017 A 
ATOM     10  C   UNL d   1      -0.610  -0.230   1.159  0.00  0.00     0.075 A 
ATOM     11  C   UNL d   1       0.259   0.776   0.753  0.00  0.00     0.071 A 
ATOM     12  C   UNL d   1      -0.268   1.919   0.150  0.00  0.00     0.038 A 
ENDROOT
BRANCH   3  13
ATOM     13  C   UNL d   1      -6.282   0.068   0.538  0.00  0.00     0.045 C 
BRANCH  13  14
ATOM     14  C   UNL d   1      -6.776  -0.638  -0.728  0.00  0.00     0.004 C 
BRANCH  14  15
ATOM     15  C   UNL d   1      -8.303  -0.675  -0.782  0.00  0.00    -0.004 C 
ATOM     16  C   UNL d   1      -8.800  -1.378  -2.035  0.00  0.00     0.005 C 
ENDBRANCH  14  15
ENDBRANCH  13  14
ENDBRANCH   3  13
BRANCH  11  17
ATOM     17  O   UNL d   1       1.617   0.776   0.888  0.00  0.00    -0.347 OA
BRANCH  17  18
ATOM     18  C   UNL d   1       2.219  -0.402   1.425  0.00  0.00     0.215 C 
BRANCH  18  19
ATOM     19  C   UNL d   1       3.722  -0.244   1.360  0.00  0.00    -0.023 A 
ATOM     20  C   UNL d   1       4.422  -0.262   0.134  0.00  0.00    -0.010 A 
ATOM     21  C   UNL d   1       5.820  -0.125   0.133  0.00  0.00     0.013 A 
ATOM     22  C   UNL d   1       6.520   0.042   1.328  0.00  0.00     0.001 A 
ATOM     23  C   UNL d   1       5.832   0.076   2.536  0.00  0.00     0.001 A 
ATOM     24  C   UNL d   1       4.444  -0.065   2.554  0.00  0.00     0.010 A 
BRANCH  20  25
ATOM     25  C   UNL d   1       3.736  -0.423  -1.163  0.00  0.00     0.072 C 
ATOM     26  C   UNL d   1       3.442  -1.644  -1.646  0.00  0.00     0.152 C 
BRANCH  25  27
ATOM     27  C   UNL d   1       3.332   0.741  -2.005  0.00  0.00     0.295 C 
ATOM     28  O   UNL d   1       2.719   0.648  -3.060  0.00  0.00    -0.259 OA
BRANCH  27  29
ATOM     29  O   UNL d   1       3.753   1.904  -1.445  0.00  0.00    -0.322 OA
ATOM     30  C   UNL d   1       3.391   3.071  -2.180  0.00  0.00     0.213 C 
ENDBRANCH  27  29
ENDBRANCH  25  27
BRANCH  26  31
ATOM     31  O   UNL d   1       3.750  -2.812  -0.993  0.00  0.00    -0.367 OA
ATOM     32  C   UNL d   1       3.022  -3.927  -1.502  0.00  0.00     0.208 C 
ENDBRANCH  26  31
ENDBRANCH  20  25
ENDBRANCH  18  19
ENDBRANCH  17  18
ENDBRANCH  11  17
TORSDOF 10
