@<TRIPOS>MOLECULE
*****
 60 62 0 0 0
SMALL
GASTEIGER

@<TRIPOS>ATOM
      1 O          -2.7936   -1.1348    1.3894 O.2     1  UNL1       -0.4218
      2 O           1.6171    0.7757    0.8884 O.3     1  UNL1       -0.4872
      3 O          -4.8585   -2.0399    1.6409 O.2     1  UNL1       -0.2449
      4 O           3.7530    1.9040   -1.4450 O.3     1  UNL1       -0.4644
      5 O           3.7499   -2.8120   -0.9931 O.2     1  UNL1       -0.5018
      6 O           2.7187    0.6484   -3.0602 O.2     1  UNL1       -0.2448
      7 C          -6.2816    0.0680    0.5382 C.3     1  UNL1       -0.0206
      8 C          -4.7682    0.1045    0.6100 C.ar    1  UNL1        0.0406
      9 C          -6.7758   -0.6379   -0.7282 C.3     1  UNL1       -0.0491
     10 C          -4.0005    1.1246    0.1655 C.ar    1  UNL1       -0.0298
     11 C          -2.5367    1.0502    0.3447 C.ar    1  UNL1        0.0210
     12 C          -8.3033   -0.6748   -0.7817 C.3     1  UNL1       -0.0556
     13 C          -1.9851   -0.0760    0.9487 C.ar    1  UNL1        0.1428
     14 C          -4.1692   -1.1022    1.2519 C.ar    1  UNL1        0.3407
     15 C          -4.5489    2.3459   -0.5291 C.3     1  UNL1       -0.0386
     16 C          -1.6479    2.0571   -0.0516 C.ar    1  UNL1       -0.0474
     17 C          -0.6098   -0.2297    1.1591 C.ar    1  UNL1        0.0231
     18 C           0.2587    0.7762    0.7531 C.ar    1  UNL1        0.1245
     19 C          -0.2679    1.9191    0.1505 C.ar    1  UNL1       -0.0191
     20 C          -8.7999   -1.3778   -2.0349 C.3     1  UNL1       -0.0653
     21 C           2.2192   -0.4016    1.4245 C.3     1  UNL1        0.1152
     22 C           3.7218   -0.2438    1.3597 C.ar    1  UNL1       -0.0024
     23 C           4.4218   -0.2616    0.1337 C.ar    1  UNL1       -0.0017
     24 C           4.4438   -0.0653    2.5535 C.ar    1  UNL1       -0.0548
     25 C           5.8201   -0.1254    0.1332 C.ar    1  UNL1       -0.0533
     26 C           3.7358   -0.4235   -1.1632 C.2     1  UNL1        0.1005
     27 C           5.8318    0.0758    2.5364 C.ar    1  UNL1       -0.0614
     28 C           6.5201    0.0422    1.3279 C.ar    1  UNL1       -0.0612
     29 C           3.3321    0.7407   -2.0048 C.2     1  UNL1        0.3425
     30 C           3.4421   -1.6442   -1.6457 C.2     1  UNL1        0.0986
     31 C           3.3909    3.0708   -2.1805 C.3     1  UNL1        0.0820
     32 C           3.0222   -3.9266   -1.5018 C.3     1  UNL1        0.0780
     33 H          -6.6899   -0.4318    1.4261 H       1  UNL1        0.0315
     34 H          -6.6992    1.0799    0.5898 H       1  UNL1        0.0315
     35 H          -6.3857   -1.6627   -0.7625 H       1  UNL1        0.0268
     36 H          -6.3921   -0.1205   -1.6164 H       1  UNL1        0.0268
     37 H          -8.6943   -1.1947    0.1007 H       1  UNL1        0.0263
     38 H          -8.7015    0.3463   -0.7603 H       1  UNL1        0.0263
     39 H          -5.6202    2.2896   -0.7350 H       1  UNL1        0.0278
     40 H          -4.3825    3.2411    0.0799 H       1  UNL1        0.0278
     41 H          -4.0678    2.4852   -1.5038 H       1  UNL1        0.0278
     42 H          -1.9973    2.9714   -0.5234 H       1  UNL1        0.0626
     43 H          -0.2621   -1.1368    1.6404 H       1  UNL1        0.0691
     44 H           0.4032    2.7142   -0.1678 H       1  UNL1        0.0654
     45 H          -8.4530   -0.8634   -2.9368 H       1  UNL1        0.0230
     46 H          -9.8941   -1.3935   -2.0524 H       1  UNL1        0.0230
     47 H          -8.4447   -2.4126   -2.0711 H       1  UNL1        0.0230
     48 H           1.9013   -0.5334    2.4664 H       1  UNL1        0.0748
     49 H           1.9260   -1.2954    0.8604 H       1  UNL1        0.0748
     50 H           3.9255   -0.0331    3.5096 H       1  UNL1        0.0622
     51 H           6.3723   -0.1475   -0.8039 H       1  UNL1        0.0624
     52 H           6.3754    0.2117    3.4678 H       1  UNL1        0.0618
     53 H           7.6014    0.1491    1.3131 H       1  UNL1        0.0618
     54 H           2.9482   -1.7845   -2.6012 H       1  UNL1        0.1031
     55 H           3.8621    3.0624   -3.1683 H       1  UNL1        0.0661
     56 H           2.3027    3.1473   -2.2703 H       1  UNL1        0.0661
     57 H           3.7538    3.9440   -1.6314 H       1  UNL1        0.0661
     58 H           1.9432   -3.7598   -1.4136 H       1  UNL1        0.0660
     59 H           3.2952   -4.1257   -2.5437 H       1  UNL1        0.0660
     60 H           3.2846   -4.8046   -0.9045 H       1  UNL1        0.0660
@<TRIPOS>BOND
     1     1    13   ar
     2     1    14   ar
     3     2    18    1
     4     2    21    1
     5     3    14    2
     6     4    29    1
     7     4    31    1
     8     5    30    1
     9     5    32    1
    10     6    29    2
    11     7     8    1
    12     7     9    1
    13     7    33    1
    14     7    34    1
    15     8    10   ar
    16     8    14   ar
    17     9    12    1
    18     9    35    1
    19     9    36    1
    20    10    11   ar
    21    10    15    1
    22    11    13   ar
    23    11    16   ar
    24    12    20    1
    25    12    37    1
    26    12    38    1
    27    13    17   ar
    28    15    39    1
    29    15    40    1
    30    15    41    1
    31    16    19   ar
    32    16    42    1
    33    17    18   ar
    34    17    43    1
    35    18    19   ar
    36    19    44    1
    37    20    45    1
    38    20    46    1
    39    20    47    1
    40    21    22    1
    41    21    48    1
    42    21    49    1
    43    22    23   ar
    44    22    24   ar
    45    23    25   ar
    46    23    26    1
    47    24    27   ar
    48    24    50    1
    49    25    28   ar
    50    25    51    1
    51    26    29    1
    52    26    30    2
    53    27    28   ar
    54    27    52    1
    55    28    53    1
    56    30    54    1
    57    31    55    1
    58    31    56    1
    59    31    57    1
    60    32    58    1
    61    32    59    1
    62    32    60    1
