REMARK  6 active torsions:
REMARK  status: ('A' for Active; 'I' for Inactive)
REMARK    1  A    between atoms: O_1  and  C_7 
REMARK    2  A    between atoms: O_1  and  C_11 
REMARK    3  A    between atoms: O_2  and  N_4 
REMARK       I    between atoms: N_5  and  C_37 
REMARK    4  A    between atoms: C_6  and  C_7 
REMARK    5  A    between atoms: C_10  and  C_22 
REMARK    6  A    between atoms: C_22  and  C_37 
ROOT
ATOM      1  O   UNL d   1       0.580   1.054   0.289  0.00  0.00    -0.346 OA
ENDROOT
BRANCH   1   2
ATOM      2  C   UNL d   1      -0.319   1.315  -0.785  0.00  0.00     0.215 C 
BRANCH   2   3
ATOM      3  C   UNL d   1      -1.717   1.285  -0.219  0.00  0.00    -0.021 A 
ATOM      4  C   UNL d   1      -2.333   0.080   0.166  0.00  0.00     0.009 A 
ATOM      5  C   UNL d   1      -3.619   0.070   0.718  0.00  0.00     0.014 A 
ATOM      6  C   UNL d   1      -4.305   1.270   0.895  0.00  0.00     0.001 A 
ATOM      7  C   UNL d   1      -3.707   2.474   0.525  0.00  0.00     0.001 A 
ATOM      8  C   UNL d   1      -2.422   2.484  -0.025  0.00  0.00     0.010 A 
BRANCH   4   9
ATOM      9  C   UNL d   1      -1.641  -1.215  -0.007  0.00  0.00     0.162 C 
ATOM     10  N   UNL d   1      -1.498  -1.860  -1.134  0.00  0.00    -0.128 NA
BRANCH  10  11
ATOM     11  O   UNL d   1      -2.138  -1.196  -2.193  0.00  0.00    -0.261 OA
ATOM     12  C   UNL d   1      -2.032  -2.002  -3.360  0.00  0.00     0.240 C 
ENDBRANCH  10  11
BRANCH   9  13
ATOM     13  C   UNL d   1      -1.015  -1.841   1.237  0.00  0.00     0.273 C 
ATOM     14  O   UNL d   1      -1.586  -1.797   2.315  0.00  0.00    -0.266 OA
ATOM     15  N   UNL d   1       0.192  -2.453   0.986  0.00  0.00    -0.360 N 
ATOM     16  C   UNL d   1       0.909  -3.183   1.993  0.00  0.00     0.149 C 
ATOM     17  H   UNL d   1       0.474  -2.517   0.013  0.00  0.00     0.162 HD
ENDBRANCH   9  13
ENDBRANCH   4   9
ENDBRANCH   2   3
ENDBRANCH   1   2
BRANCH   1  18
ATOM     18  C   UNL d   1       1.897   0.828  -0.011  0.00  0.00     0.075 A 
ATOM     19  C   UNL d   1       2.724   0.528   1.086  0.00  0.00    -0.029 A 
ATOM     20  C   UNL d   1       4.090   0.294   0.875  0.00  0.00     0.010 A 
ATOM     21  C   UNL d   1       2.177   0.514   2.488  0.00  0.00     0.051 C 
ATOM     22  C   UNL d   1       4.627   0.337  -0.411  0.00  0.00     0.007 A 
ATOM     23  C   UNL d   1       3.809   0.617  -1.508  0.00  0.00    -0.059 A 
ATOM     24  C   UNL d   1       2.446   0.879  -1.297  0.00  0.00     0.044 A 
ATOM     25  C   UNL d   1       4.393   0.706  -2.887  0.00  0.00     0.048 C 
ENDBRANCH   1  18
TORSDOF 6
