@<TRIPOS>MOLECULE
*****
 46 47 0 0 0
SMALL
GASTEIGER

@<TRIPOS>ATOM
      1 O           0.5803    1.0543    0.2893 O.3     1  UNL1       -0.4871
      2 O          -2.1380   -1.1957   -2.1926 O.2     1  UNL1       -0.3965
      3 O          -1.5858   -1.7974    2.3148 O.2     1  UNL1       -0.2684
      4 N          -1.4977   -1.8596   -1.1340 N.2     1  UNL1       -0.0795
      5 N           0.1922   -2.4530    0.9856 N.am    1  UNL1       -0.3131
      6 C          -1.7171    1.2853   -0.2193 C.ar    1  UNL1       -0.0010
      7 C          -0.3185    1.3146   -0.7846 C.3     1  UNL1        0.1153
      8 C          -2.3329    0.0797    0.1658 C.ar    1  UNL1        0.0150
      9 C           1.8967    0.8277   -0.0110 C.ar    1  UNL1        0.1241
     10 C           2.7237    0.5284    1.0861 C.ar    1  UNL1       -0.0088
     11 C           2.4463    0.8788   -1.2970 C.ar    1  UNL1       -0.0167
     12 C          -2.4217    2.4836   -0.0245 C.ar    1  UNL1       -0.0547
     13 C           3.8086    0.6173   -1.5077 C.ar    1  UNL1       -0.0470
     14 C          -3.6189    0.0695    0.7176 C.ar    1  UNL1       -0.0519
     15 C           4.0896    0.2940    0.8751 C.ar    1  UNL1       -0.0551
     16 C          -1.6405   -1.2152   -0.0072 C.2     1  UNL1        0.1714
     17 C           4.6271    0.3373   -0.4109 C.ar    1  UNL1       -0.0584
     18 C          -3.7068    2.4736    0.5247 C.ar    1  UNL1       -0.0614
     19 C          -4.3045    1.2696    0.8947 C.ar    1  UNL1       -0.0611
     20 C           2.1772    0.5141    2.4879 C.3     1  UNL1       -0.0362
     21 C           4.3933    0.7062   -2.8868 C.3     1  UNL1       -0.0396
     22 C          -1.0145   -1.8414    1.2371 C.2     1  UNL1        0.2660
     23 C           0.9090   -3.1829    1.9930 C.3     1  UNL1        0.0004
     24 C          -2.0318   -2.0017   -3.3595 C.3     1  UNL1        0.1072
     25 H          -0.2328    0.5675   -1.5807 H       1  UNL1        0.0748
     26 H          -0.1019    2.3008   -1.2132 H       1  UNL1        0.0748
     27 H           1.8368    1.1254   -2.1604 H       1  UNL1        0.0657
     28 H          -1.9701    3.4371   -0.2906 H       1  UNL1        0.0622
     29 H          -4.0826   -0.8677    1.0162 H       1  UNL1        0.0624
     30 H           4.7458    0.0813    1.7161 H       1  UNL1        0.0621
     31 H           5.6909    0.1569   -0.5485 H       1  UNL1        0.0620
     32 H          -4.2398    3.4100    0.6726 H       1  UNL1        0.0618
     33 H          -5.3012    1.2665    1.3286 H       1  UNL1        0.0618
     34 H           2.8800    0.0443    3.1841 H       1  UNL1        0.0279
     35 H           1.9921    1.5383    2.8266 H       1  UNL1        0.0279
     36 H           1.2451   -0.0561    2.5403 H       1  UNL1        0.0279
     37 H           4.6998    1.7353   -3.0976 H       1  UNL1        0.0278
     38 H           5.2646    0.0503   -2.9858 H       1  UNL1        0.0278
     39 H           3.6637    0.3913   -3.6404 H       1  UNL1        0.0278
     40 H           0.4738   -2.5171    0.0126 H       1  UNL1        0.1487
     41 H           1.9752   -3.1406    1.7589 H       1  UNL1        0.0426
     42 H           0.5700   -4.2218    1.9751 H       1  UNL1        0.0426
     43 H           0.7271   -2.7574    2.9833 H       1  UNL1        0.0426
     44 H          -0.9799   -2.1508   -3.6219 H       1  UNL1        0.0687
     45 H          -2.5308   -1.4848   -4.1833 H       1  UNL1        0.0687
     46 H          -2.5219   -2.9668   -3.1994 H       1  UNL1        0.0687
@<TRIPOS>BOND
     1     1     7    1
     2     1     9    1
     3     2     4    1
     4     2    24    1
     5     3    22    2
     6     4    16    2
     7     5    22   am
     8     5    23    1
     9     5    40    1
    10     6     7    1
    11     6     8   ar
    12     6    12   ar
    13     7    25    1
    14     7    26    1
    15     8    14   ar
    16     8    16    1
    17     9    10   ar
    18     9    11   ar
    19    10    15   ar
    20    10    20    1
    21    11    13   ar
    22    11    27    1
    23    12    18   ar
    24    12    28    1
    25    13    17   ar
    26    13    21    1
    27    14    19   ar
    28    14    29    1
    29    15    17   ar
    30    15    30    1
    31    16    22    1
    32    17    31    1
    33    18    19   ar
    34    18    32    1
    35    19    33    1
    36    20    34    1
    37    20    35    1
    38    20    36    1
    39    21    37    1
    40    21    38    1
    41    21    39    1
    42    23    41    1
    43    23    42    1
    44    23    43    1
    45    24    44    1
    46    24    45    1
    47    24    46    1
