@<TRIPOS>MOLECULE
*****
 50 51 0 0 0
SMALL
GASTEIGER

@<TRIPOS>ATOM
      1 CL         -9.2568   -0.7348    0.5688 Cl      1  UNL1       -0.0835
      2 O           0.8240    0.9671   -0.0156 O.2     1  UNL1       -0.3888
      3 O           3.8251   -2.0765    1.5683 O.3     1  UNL1       -0.4644
      4 O           3.2270    0.1111   -2.5904 O.2     1  UNL1       -0.5018
      5 O           3.2096   -3.3282   -0.2511 O.2     1  UNL1       -0.2448
      6 N          -0.5130    0.5807    0.1728 N.2     1  UNL1       -0.0896
      7 C           3.0034    1.0701    0.9600 C.ar    1  UNL1        0.0002
      8 C           3.9123    0.3137    0.1895 C.ar    1  UNL1       -0.0016
      9 C           1.5674    0.6483    1.1592 C.3     1  UNL1        0.1435
     10 C           3.4390    2.2789    1.5342 C.ar    1  UNL1       -0.0547
     11 C           5.2297    0.7768    0.0250 C.ar    1  UNL1       -0.0533
     12 C           3.5349   -0.9539   -0.4672 C.2     1  UNL1        0.1005
     13 C           4.7507    2.7227    1.3650 C.ar    1  UNL1       -0.0614
     14 C           5.6464    1.9716    0.6117 C.ar    1  UNL1       -0.0612
     15 C           3.4946   -2.2548    0.2626 C.2     1  UNL1        0.3425
     16 C           3.2249   -0.9935   -1.7757 C.2     1  UNL1        0.0986
     17 C          -4.8299    0.1426    0.2460 C.ar    1  UNL1       -0.0249
     18 C          -1.2196    0.8105   -0.8960 C.2     1  UNL1        0.0770
     19 C          -3.3917    0.4358    0.1969 C.2     1  UNL1       -0.0528
     20 C          -2.6720    0.4690   -0.9345 C.2     1  UNL1       -0.0370
     21 C          -5.4290   -0.8154   -0.5840 C.ar    1  UNL1       -0.0532
     22 C          -5.6214    0.8052    1.1946 C.ar    1  UNL1       -0.0532
     23 C          -0.6355    1.3995   -2.1623 C.3     1  UNL1       -0.0192
     24 C          -6.7981   -1.0842   -0.4869 C.ar    1  UNL1       -0.0428
     25 C          -6.9903    0.5380    1.2927 C.ar    1  UNL1       -0.0428
     26 C          -7.5730   -0.4039    0.4491 C.ar    1  UNL1        0.0410
     27 C           3.8150   -3.2755    2.3421 C.3     1  UNL1        0.0820
     28 C           2.9549   -0.2085   -3.9511 C.3     1  UNL1        0.0780
     29 H           1.5002   -0.4249    1.3696 H       1  UNL1        0.0775
     30 H           1.1300    1.1745    2.0169 H       1  UNL1        0.0775
     31 H           2.7490    2.8879    2.1151 H       1  UNL1        0.0622
     32 H           5.9387    0.2078   -0.5728 H       1  UNL1        0.0624
     33 H           5.0696    3.6591    1.8153 H       1  UNL1        0.0618
     34 H           6.6667    2.3182    0.4723 H       1  UNL1        0.0618
     35 H           2.9448   -1.9156   -2.2730 H       1  UNL1        0.1031
     36 H          -2.9191    0.6558    1.1527 H       1  UNL1        0.0624
     37 H          -3.1075    0.2943   -1.9107 H       1  UNL1        0.0637
     38 H          -4.8376   -1.3744   -1.3052 H       1  UNL1        0.0624
     39 H          -5.1799    1.5425    1.8623 H       1  UNL1        0.0624
     40 H           0.1232    0.7215   -2.5630 H       1  UNL1        0.0294
     41 H          -1.4054    1.5495   -2.9241 H       1  UNL1        0.0294
     42 H          -0.1789    2.3687   -1.9414 H       1  UNL1        0.0294
     43 H          -7.2484   -1.8285   -1.1381 H       1  UNL1        0.0632
     44 H          -7.5909    1.0657    2.0287 H       1  UNL1        0.0632
     45 H           4.0911   -3.0186    3.3684 H       1  UNL1        0.0661
     46 H           4.5491   -3.9887    1.9543 H       1  UNL1        0.0661
     47 H           2.8133   -3.7164    2.3533 H       1  UNL1        0.0661
     48 H           2.9805    0.7192   -4.5298 H       1  UNL1        0.0660
     49 H           1.9584   -0.6510   -4.0551 H       1  UNL1        0.0660
     50 H           3.7176   -0.8853   -4.3511 H       1  UNL1        0.0660
@<TRIPOS>BOND
     1     1    26    1
     2     2     6    1
     3     2     9    1
     4     3    15    1
     5     3    27    1
     6     4    16    1
     7     4    28    1
     8     5    15    2
     9     6    18    2
    10     7     8   ar
    11     7     9    1
    12     7    10   ar
    13     8    11   ar
    14     8    12    1
    15     9    29    1
    16     9    30    1
    17    10    13   ar
    18    10    31    1
    19    11    14   ar
    20    11    32    1
    21    12    15    1
    22    12    16    2
    23    13    14   ar
    24    13    33    1
    25    14    34    1
    26    16    35    1
    27    17    19    1
    28    17    21   ar
    29    17    22   ar
    30    18    20    1
    31    18    23    1
    32    19    20    2
    33    19    36    1
    34    20    37    1
    35    21    24   ar
    36    21    38    1
    37    22    25   ar
    38    22    39    1
    39    23    40    1
    40    23    41    1
    41    23    42    1
    42    24    26   ar
    43    24    43    1
    44    25    26   ar
    45    25    44    1
    46    27    45    1
    47    27    46    1
    48    27    47    1
    49    28    48    1
    50    28    49    1
    51    28    50    1
