REMARK  9 active torsions:
REMARK  status: ('A' for Active; 'I' for Inactive)
REMARK    1  A    between atoms: O_2  and  N_6 
REMARK    2  A    between atoms: O_2  and  C_9 
REMARK    3  A    between atoms: O_3  and  C_21 
REMARK    4  A    between atoms: O_4  and  C_22 
REMARK    5  A    between atoms: C_7  and  C_9 
REMARK    6  A    between atoms: C_8  and  C_16 
REMARK    7  A    between atoms: C_16  and  C_21 
REMARK    8  A    between atoms: C_24  and  C_26 
REMARK    9  A    between atoms: C_25  and  C_28 
ROOT
ATOM      1 CL   UNL d   1      -9.257  -0.735   0.569  0.00  0.00    -0.084 Cl
ATOM      2  C   UNL d   1      -4.830   0.143   0.246  0.00  0.00    -0.036 A 
ATOM      3  C   UNL d   1      -5.429  -0.815  -0.584  0.00  0.00     0.013 A 
ATOM      4  C   UNL d   1      -5.621   0.805   1.195  0.00  0.00     0.013 A 
ATOM      5  C   UNL d   1      -6.798  -1.084  -0.487  0.00  0.00     0.024 A 
ATOM      6  C   UNL d   1      -6.990   0.538   1.293  0.00  0.00     0.024 A 
ATOM      7  C   UNL d   1      -7.573  -0.404   0.449  0.00  0.00     0.034 A 
ENDROOT
BRANCH   2   8
ATOM      8  C   UNL d   1      -3.392   0.436   0.197  0.00  0.00     0.013 C 
ATOM      9  C   UNL d   1      -2.672   0.469  -0.935  0.00  0.00     0.030 C 
BRANCH   9  10
ATOM     10  C   UNL d   1      -1.220   0.811  -0.896  0.00  0.00     0.058 C 
ATOM     11  N   UNL d   1      -0.513   0.581   0.173  0.00  0.00    -0.139 NA
ATOM     12  C   UNL d   1      -0.635   1.400  -2.162  0.00  0.00     0.072 C 
BRANCH  11  13
ATOM     13  O   UNL d   1       0.824   0.967  -0.016  0.00  0.00    -0.252 OA
BRANCH  13  14
ATOM     14  C   UNL d   1       1.567   0.648   1.159  0.00  0.00     0.243 C 
BRANCH  14  15
ATOM     15  C   UNL d   1       3.003   1.070   0.960  0.00  0.00    -0.021 A 
ATOM     16  C   UNL d   1       3.912   0.314   0.190  0.00  0.00    -0.010 A 
ATOM     17  C   UNL d   1       5.230   0.777   0.025  0.00  0.00     0.013 A 
ATOM     18  C   UNL d   1       5.646   1.972   0.612  0.00  0.00     0.001 A 
ATOM     19  C   UNL d   1       4.751   2.723   1.365  0.00  0.00     0.001 A 
ATOM     20  C   UNL d   1       3.439   2.279   1.534  0.00  0.00     0.010 A 
BRANCH  16  21
ATOM     21  C   UNL d   1       3.535  -0.954  -0.467  0.00  0.00     0.072 C 
ATOM     22  C   UNL d   1       3.225  -0.994  -1.776  0.00  0.00     0.152 C 
BRANCH  21  23
ATOM     23  C   UNL d   1       3.495  -2.255   0.263  0.00  0.00     0.295 C 
ATOM     24  O   UNL d   1       3.210  -3.328  -0.251  0.00  0.00    -0.259 OA
BRANCH  23  25
ATOM     25  O   UNL d   1       3.825  -2.076   1.568  0.00  0.00    -0.322 OA
ATOM     26  C   UNL d   1       3.815  -3.276   2.342  0.00  0.00     0.213 C 
ENDBRANCH  23  25
ENDBRANCH  21  23
BRANCH  22  27
ATOM     27  O   UNL d   1       3.227   0.111  -2.590  0.00  0.00    -0.367 OA
ATOM     28  C   UNL d   1       2.955  -0.208  -3.951  0.00  0.00     0.208 C 
ENDBRANCH  22  27
ENDBRANCH  16  21
ENDBRANCH  14  15
ENDBRANCH  13  14
ENDBRANCH  11  13
ENDBRANCH   9  10
ENDBRANCH   2   8
TORSDOF 9
