@<TRIPOS>MOLECULE
*****
 46 49 0 0 0
SMALL
GASTEIGER

@<TRIPOS>ATOM
      1 O           2.0417   -2.5982    0.9542 O.3     1  UNL1       -0.4283
      2 O           2.0399   -1.2563   -2.2400 O.2     1  UNL1       -0.2687
      3 O           3.9161   -1.6515    1.8047 O.2     1  UNL1       -0.2241
      4 O          -4.0396   -0.6739    1.0113 O.3     1  UNL1       -0.4560
      5 N           2.9043   -0.8573   -0.1314 N.am    1  UNL1       -0.1185
      6 N           3.9582   -0.0388   -0.5945 N.pl3   1  UNL1       -0.2525
      7 C           1.2487   -2.4520   -0.2429 C.3     1  UNL1        0.2143
      8 C          -0.1548   -1.9535    0.0816 C.ar    1  UNL1        0.0048
      9 C           2.0636   -1.4424   -1.0295 C.2     1  UNL1        0.2893
     10 C           1.2184   -3.8030   -0.9538 C.3     1  UNL1       -0.0116
     11 C           3.0403   -1.6636    0.9535 C.2     1  UNL1        0.4277
     12 C          -1.0054   -1.5017   -0.9442 C.ar    1  UNL1       -0.0509
     13 C          -0.6504   -1.9635    1.3967 C.ar    1  UNL1       -0.0509
     14 C          -2.3017   -1.0601   -0.6628 C.ar    1  UNL1       -0.0189
     15 C          -1.9448   -1.5173    1.6779 C.ar    1  UNL1       -0.0189
     16 C          -2.7645   -1.0496    0.6529 C.ar    1  UNL1        0.1285
     17 C           3.7690    1.3376   -0.2955 C.ar    1  UNL1        0.0452
     18 C           4.2253    2.2995   -1.2097 C.ar    1  UNL1       -0.0394
     19 C           3.2754    1.7819    0.9394 C.ar    1  UNL1       -0.0394
     20 C          -4.6047    0.3883    0.3456 C.ar    1  UNL1        0.1284
     21 C           4.1217    3.6649   -0.9296 C.ar    1  UNL1       -0.0600
     22 C           3.1722    3.1474    1.2218 C.ar    1  UNL1       -0.0600
     23 C           3.5879    4.0885    0.2840 C.ar    1  UNL1       -0.0616
     24 C          -3.9795    1.6347    0.2643 C.ar    1  UNL1       -0.0193
     25 C          -5.8809    0.2037   -0.1863 C.ar    1  UNL1       -0.0193
     26 C          -4.6196    2.6869   -0.3917 C.ar    1  UNL1       -0.0583
     27 C          -6.5186    1.2576   -0.8408 C.ar    1  UNL1       -0.0583
     28 C          -5.8861    2.4970   -0.9468 C.ar    1  UNL1       -0.0615
     29 H           0.7378   -4.5636   -0.3277 H       1  UNL1        0.0276
     30 H           2.2347   -4.1601   -1.1580 H       1  UNL1        0.0276
     31 H           0.6827   -3.7560   -1.9080 H       1  UNL1        0.0276
     32 H          -0.6738   -1.4965   -1.9824 H       1  UNL1        0.0623
     33 H          -0.0415   -2.3289    2.2222 H       1  UNL1        0.0623
     34 H           4.0727   -0.1628   -1.6047 H       1  UNL1        0.1708
     35 H          -2.9420   -0.7381   -1.4800 H       1  UNL1        0.0654
     36 H          -2.3146   -1.5387    2.7002 H       1  UNL1        0.0654
     37 H           4.6644    1.9951   -2.1566 H       1  UNL1        0.0636
     38 H           2.9851    1.0756    1.7120 H       1  UNL1        0.0636
     39 H           4.4684    4.3957   -1.6557 H       1  UNL1        0.0618
     40 H           2.7829    3.4725    2.1832 H       1  UNL1        0.0618
     41 H           3.5137    5.1497    0.5071 H       1  UNL1        0.0618
     42 H          -3.0020    1.7919    0.7112 H       1  UNL1        0.0654
     43 H          -6.3746   -0.7597   -0.0944 H       1  UNL1        0.0654
     44 H          -4.1341    3.6567   -0.4637 H       1  UNL1        0.0619
     45 H          -7.5098    1.1147   -1.2632 H       1  UNL1        0.0619
     46 H          -6.3844    3.3189   -1.4550 H       1  UNL1        0.0618
@<TRIPOS>BOND
     1     1     7    1
     2     1    11    1
     3     2     9    2
     4     3    11    2
     5     4    16    1
     6     4    20    1
     7     5     6    1
     8     5     9   am
     9     5    11   am
    10     6    17    1
    11     6    34    1
    12     7     8    1
    13     7     9    1
    14     7    10    1
    15     8    12   ar
    16     8    13   ar
    17    10    29    1
    18    10    30    1
    19    10    31    1
    20    12    14   ar
    21    12    32    1
    22    13    15   ar
    23    13    33    1
    24    14    16   ar
    25    14    35    1
    26    15    16   ar
    27    15    36    1
    28    17    18   ar
    29    17    19   ar
    30    18    21   ar
    31    18    37    1
    32    19    22   ar
    33    19    38    1
    34    20    24   ar
    35    20    25   ar
    36    21    23   ar
    37    21    39    1
    38    22    23   ar
    39    22    40    1
    40    23    41    1
    41    24    26   ar
    42    24    42    1
    43    25    27   ar
    44    25    43    1
    45    26    28   ar
    46    26    44    1
    47    27    28   ar
    48    27    45    1
    49    28    46    1
