REMARK  5 active torsions:
REMARK  status: ('A' for Active; 'I' for Inactive)
REMARK    1  A    between atoms: O_4  and  C_23 
REMARK    2  A    between atoms: O_4  and  C_29 
REMARK    3  A    between atoms: N_5  and  N_6 
REMARK    4  A    between atoms: N_6  and  C_24 
REMARK    5  A    between atoms: C_7  and  C_8 
ROOT
ATOM      1  O   UNL d   1       2.042  -2.598   0.954  0.00  0.00    -0.277 OA
ATOM      2  O   UNL d   1       2.040  -1.256  -2.240  0.00  0.00    -0.268 OA
ATOM      3  O   UNL d   1       3.916  -1.652   1.805  0.00  0.00    -0.236 OA
ATOM      4  N   UNL d   1       2.904  -0.857  -0.131  0.00  0.00    -0.181 N 
ATOM      5  C   UNL d   1       1.249  -2.452  -0.243  0.00  0.00     0.178 C 
ATOM      6  C   UNL d   1       2.064  -1.442  -1.030  0.00  0.00     0.283 C 
ATOM      7  C   UNL d   1       1.218  -3.803  -0.954  0.00  0.00     0.063 C 
ATOM      8  C   UNL d   1       3.040  -1.664   0.954  0.00  0.00     0.386 C 
ENDROOT
BRANCH   5   9
ATOM      9  C   UNL d   1      -0.155  -1.954   0.082  0.00  0.00    -0.014 A 
ATOM     10  C   UNL d   1      -1.005  -1.502  -0.944  0.00  0.00     0.013 A 
ATOM     11  C   UNL d   1      -2.302  -1.060  -0.663  0.00  0.00     0.038 A 
ATOM     12  C   UNL d   1      -2.765  -1.050   0.653  0.00  0.00     0.076 A 
ATOM     13  C   UNL d   1      -1.945  -1.517   1.678  0.00  0.00     0.038 A 
ATOM     14  C   UNL d   1      -0.650  -1.964   1.397  0.00  0.00     0.013 A 
BRANCH  12  15
ATOM     15  O   UNL d   1      -4.040  -0.674   1.011  0.00  0.00    -0.311 OA
BRANCH  15  16
ATOM     16  C   UNL d   1      -4.605   0.388   0.346  0.00  0.00     0.076 A 
ATOM     17  C   UNL d   1      -3.979   1.635   0.264  0.00  0.00     0.037 A 
ATOM     18  C   UNL d   1      -4.620   2.687  -0.392  0.00  0.00     0.003 A 
ATOM     19  C   UNL d   1      -5.886   2.497  -0.947  0.00  0.00     0.000 A 
ATOM     20  C   UNL d   1      -6.519   1.258  -0.841  0.00  0.00     0.003 A 
ATOM     21  C   UNL d   1      -5.881   0.204  -0.186  0.00  0.00     0.037 A 
ENDBRANCH  15  16
ENDBRANCH  12  15
ENDBRANCH   5   9
BRANCH   4  22
ATOM     22  N   UNL d   1       3.958  -0.039  -0.595  0.00  0.00    -0.192 NA
ATOM     23  H   UNL d   1       4.073  -0.163  -1.605  0.00  0.00     0.154 HD
BRANCH  22  24
ATOM     24  C   UNL d   1       3.769   1.338  -0.295  0.00  0.00     0.028 A 
ATOM     25  C   UNL d   1       4.225   2.300  -1.210  0.00  0.00     0.025 A 
ATOM     26  C   UNL d   1       4.122   3.665  -0.930  0.00  0.00     0.002 A 
ATOM     27  C   UNL d   1       3.588   4.088   0.284  0.00  0.00     0.000 A 
ATOM     28  C   UNL d   1       3.172   3.147   1.222  0.00  0.00     0.002 A 
ATOM     29  C   UNL d   1       3.275   1.782   0.939  0.00  0.00     0.025 A 
ENDBRANCH  22  24
ENDBRANCH   4  22
TORSDOF 5
