@<TRIPOS>MOLECULE
*****
 39 41 0 0 0
SMALL
GASTEIGER

@<TRIPOS>ATOM
      1 S           1.0853    2.8414   -1.3921 S.3     1  UNL1       -0.0923
      2 O          -0.0896    0.0471    2.4833 O.2     1  UNL1       -0.2706
      3 N           0.6678    0.9760    0.4938 N.am    1  UNL1       -0.1642
      4 N          -1.1904    2.0127   -0.2637 N.2     1  UNL1       -0.2411
      5 N           2.0333    0.9076    0.8048 N.pl3   1  UNL1       -0.2557
      6 C          -1.6128    1.0127    0.7799 C.3     1  UNL1        0.1637
      7 C          -0.2773    0.5643    1.3902 C.2     1  UNL1        0.2697
      8 C          -2.3855   -0.1658    0.1889 C.ar    1  UNL1       -0.0114
      9 C          -2.4501    1.7603    1.8198 C.3     1  UNL1       -0.0268
     10 C           0.0995    1.8929   -0.3252 C.2     1  UNL1        0.1764
     11 C          -2.6642   -1.3028    0.9687 C.ar    1  UNL1       -0.0558
     12 C          -2.8492   -0.1460   -1.1375 C.ar    1  UNL1       -0.0558
     13 C           2.6994   -0.2296    0.2701 C.ar    1  UNL1        0.0451
     14 C          -3.3666   -2.3859    0.4354 C.ar    1  UNL1       -0.0614
     15 C          -3.5500   -1.2308   -1.6701 C.ar    1  UNL1       -0.0614
     16 C          -3.8068   -2.3508   -0.8845 C.ar    1  UNL1       -0.0617
     17 C           3.9239   -0.6102    0.8414 C.ar    1  UNL1       -0.0394
     18 C           2.2743   -0.9036   -0.8840 C.ar    1  UNL1       -0.0394
     19 C          -0.0885    4.1230   -1.8737 C.3     1  UNL1       -0.0108
     20 C           4.6653   -1.6737    0.3192 C.ar    1  UNL1       -0.0600
     21 C           3.0123   -1.9709   -1.4055 C.ar    1  UNL1       -0.0600
     22 C           4.2044   -2.3593   -0.8007 C.ar    1  UNL1       -0.0616
     23 H          -1.8938    2.6069    2.2393 H       1  UNL1        0.0261
     24 H          -2.7359    1.1133    2.6568 H       1  UNL1        0.0261
     25 H          -3.3691    2.1588    1.3743 H       1  UNL1        0.0261
     26 H          -2.3340   -1.3602    2.0053 H       1  UNL1        0.0621
     27 H          -2.6726    0.7193   -1.7736 H       1  UNL1        0.0621
     28 H           2.1730    0.9407    1.8180 H       1  UNL1        0.1707
     29 H          -3.5692   -3.2573    1.0531 H       1  UNL1        0.0618
     30 H          -3.8974   -1.1978   -2.6996 H       1  UNL1        0.0618
     31 H          -4.3529   -3.1938   -1.2993 H       1  UNL1        0.0618
     32 H           4.3156   -0.0759    1.7035 H       1  UNL1        0.0636
     33 H           1.3632   -0.6159   -1.4005 H       1  UNL1        0.0636
     34 H           0.4143    4.8435   -2.5245 H       1  UNL1        0.0345
     35 H          -0.4601    4.6562   -0.9941 H       1  UNL1        0.0345
     36 H          -0.9300    3.6929   -2.4237 H       1  UNL1        0.0345
     37 H           5.6060   -1.9590    0.7828 H       1  UNL1        0.0618
     38 H           2.6575   -2.4912   -2.2916 H       1  UNL1        0.0618
     39 H           4.7797   -3.1854   -1.2102 H       1  UNL1        0.0618
@<TRIPOS>BOND
     1     1    10    1
     2     1    19    1
     3     2     7    2
     4     3     5    1
     5     3     7   am
     6     3    10    1
     7     4     6    1
     8     4    10    2
     9     5    13    1
    10     5    28    1
    11     6     7    1
    12     6     8    1
    13     6     9    1
    14     8    11   ar
    15     8    12   ar
    16     9    23    1
    17     9    24    1
    18     9    25    1
    19    11    14   ar
    20    11    26    1
    21    12    15   ar
    22    12    27    1
    23    13    17   ar
    24    13    18   ar
    25    14    16   ar
    26    14    29    1
    27    15    16   ar
    28    15    30    1
    29    16    31    1
    30    17    20   ar
    31    17    32    1
    32    18    21   ar
    33    18    33    1
    34    19    34    1
    35    19    35    1
    36    19    36    1
    37    20    22   ar
    38    20    37    1
    39    21    22   ar
    40    21    38    1
    41    22    39    1
