REMARK  8 active torsions:
REMARK  status: ('A' for Active; 'I' for Inactive)
REMARK    1  A    between atoms: O_5  and  C_11 
REMARK    2  A    between atoms: O_5  and  C_19 
REMARK    3  A    between atoms: O_6  and  C_32 
REMARK    4  A    between atoms: O_7  and  C_33 
REMARK    5  A    between atoms: C_9  and  C_11 
REMARK    6  A    between atoms: C_10  and  C_18 
REMARK    7  A    between atoms: C_18  and  C_32 
REMARK    8  A    between atoms: C_24  and  C_35 
ROOT
ATOM      1 CL   UNL d   1       1.701   3.126   0.525  0.00  0.00    -0.081 Cl
ATOM      2  C   UNL d   1       1.248   0.497  -0.041  0.00  0.00     0.090 A 
ATOM      3  C   UNL d   1       3.992  -0.078  -0.214  0.00  0.00     0.049 A 
ATOM      4  C   UNL d   1       2.188   1.510   0.165  0.00  0.00     0.068 A 
ATOM      5  C   UNL d   1       1.673  -0.808  -0.300  0.00  0.00     0.039 A 
ATOM      6  C   UNL d   1       3.552   1.226   0.072  0.00  0.00     0.042 A 
ATOM      7  C   UNL d   1       3.037  -1.091  -0.396  0.00  0.00     0.019 A 
ENDROOT
BRANCH   2   8
ATOM      8  O   UNL d   1      -0.086   0.761   0.110  0.00  0.00    -0.345 OA
BRANCH   8   9
ATOM      9  C   UNL d   1      -0.785   0.698  -1.138  0.00  0.00     0.215 C 
BRANCH   9  10
ATOM     10  C   UNL d   1      -2.236   1.041  -0.889  0.00  0.00    -0.023 A 
ATOM     11  C   UNL d   1      -3.091   0.184  -0.161  0.00  0.00    -0.010 A 
ATOM     12  C   UNL d   1      -4.434   0.545   0.032  0.00  0.00     0.013 A 
ATOM     13  C   UNL d   1      -4.928   1.746  -0.477  0.00  0.00     0.001 A 
ATOM     14  C   UNL d   1      -4.085   2.599  -1.183  0.00  0.00     0.001 A 
ATOM     15  C   UNL d   1      -2.750   2.251  -1.388  0.00  0.00     0.010 A 
BRANCH  11  16
ATOM     16  C   UNL d   1      -2.619  -1.093   0.409  0.00  0.00     0.072 C 
ATOM     17  C   UNL d   1      -2.693  -2.237  -0.293  0.00  0.00     0.152 C 
BRANCH  16  18
ATOM     18  C   UNL d   1      -2.001  -1.182   1.765  0.00  0.00     0.295 C 
ATOM     19  O   UNL d   1      -1.457  -2.187   2.204  0.00  0.00    -0.259 OA
BRANCH  18  20
ATOM     20  O   UNL d   1      -2.127  -0.003   2.424  0.00  0.00    -0.322 OA
ATOM     21  C   UNL d   1      -1.474   0.034   3.691  0.00  0.00     0.213 C 
ENDBRANCH  18  20
ENDBRANCH  16  18
BRANCH  17  22
ATOM     22  O   UNL d   1      -3.215  -2.318  -1.560  0.00  0.00    -0.367 OA
ATOM     23  C   UNL d   1      -2.695  -3.428  -2.286  0.00  0.00     0.208 C 
ENDBRANCH  17  22
ENDBRANCH  11  16
ENDBRANCH   9  10
ENDBRANCH   8   9
ENDBRANCH   2   8
BRANCH   3  24
ATOM     24  C   UNL d   1       5.471  -0.369  -0.297  0.00  0.00     0.417 C 
ATOM     25  F   UNL d   1       5.753  -1.653  -0.651  0.00  0.00    -0.166 F 
ATOM     26  F   UNL d   1       6.102   0.418  -1.212  0.00  0.00    -0.166 F 
ATOM     27  F   UNL d   1       6.109  -0.156   0.885  0.00  0.00    -0.166 F 
ENDBRANCH   3  24
TORSDOF 8
