@<TRIPOS>MOLECULE
*****
 43 44 0 0 0
SMALL
GASTEIGER

@<TRIPOS>ATOM
      1 CL          1.7014    3.1255    0.5246 Cl      1  UNL1       -0.0797
      2 F           5.7533   -1.6528   -0.6511 F       1  UNL1       -0.1659
      3 F           6.1016    0.4178   -1.2124 F       1  UNL1       -0.1659
      4 F           6.1091   -0.1555    0.8852 F       1  UNL1       -0.1659
      5 O          -0.0863    0.7610    0.1102 O.3     1  UNL1       -0.4859
      6 O          -2.1272   -0.0029    2.4238 O.3     1  UNL1       -0.4644
      7 O          -3.2152   -2.3181   -1.5600 O.2     1  UNL1       -0.5018
      8 O          -1.4567   -2.1866    2.2045 O.2     1  UNL1       -0.2448
      9 C          -2.2361    1.0405   -0.8888 C.ar    1  UNL1       -0.0024
     10 C          -3.0906    0.1837   -0.1609 C.ar    1  UNL1       -0.0017
     11 C          -0.7846    0.6983   -1.1376 C.3     1  UNL1        0.1153
     12 C          -2.7496    2.2506   -1.3878 C.ar    1  UNL1       -0.0548
     13 C          -4.4342    0.5449    0.0315 C.ar    1  UNL1       -0.0533
     14 C          -2.6186   -1.0928    0.4094 C.2     1  UNL1        0.1005
     15 C           1.2481    0.4966   -0.0413 C.ar    1  UNL1        0.1392
     16 C          -4.0851    2.5992   -1.1833 C.ar    1  UNL1       -0.0614
     17 C          -4.9275    1.7463   -0.4769 C.ar    1  UNL1       -0.0612
     18 C           3.9916   -0.0778   -0.2135 C.ar    1  UNL1        0.0564
     19 C           2.1878    1.5099    0.1652 C.ar    1  UNL1        0.0831
     20 C           1.6727   -0.8080   -0.3002 C.ar    1  UNL1       -0.0179
     21 C           3.5523    1.2262    0.0725 C.ar    1  UNL1       -0.0282
     22 C           3.0374   -1.0915   -0.3955 C.ar    1  UNL1       -0.0466
     23 C          -2.0013   -1.1821    1.7648 C.2     1  UNL1        0.3425
     24 C          -2.6932   -2.2368   -0.2933 C.2     1  UNL1        0.0986
     25 C           5.4705   -0.3686   -0.2975 C.3     1  UNL1        0.4175
     26 C          -1.4736    0.0340    3.6908 C.3     1  UNL1        0.0820
     27 C          -2.6945   -3.4282   -2.2857 C.3     1  UNL1        0.0780
     28 H          -0.7216   -0.3002   -1.5877 H       1  UNL1        0.0748
     29 H          -0.3414    1.4108   -1.8457 H       1  UNL1        0.0748
     30 H          -2.1073    2.9353   -1.9378 H       1  UNL1        0.0622
     31 H          -5.1040   -0.1100    0.5846 H       1  UNL1        0.0624
     32 H          -4.4669    3.5388   -1.5744 H       1  UNL1        0.0618
     33 H          -5.9678    2.0169   -0.3171 H       1  UNL1        0.0618
     34 H           0.9476   -1.6113   -0.4059 H       1  UNL1        0.0655
     35 H           4.2812    2.0199    0.2308 H       1  UNL1        0.0639
     36 H           3.3536   -2.1145   -0.5984 H       1  UNL1        0.0624
     37 H          -2.3574   -3.1873    0.1072 H       1  UNL1        0.1031
     38 H          -1.5409    1.0546    4.0775 H       1  UNL1        0.0661
     39 H          -0.4148   -0.2260    3.5906 H       1  UNL1        0.0661
     40 H          -1.9734   -0.6388    4.3942 H       1  UNL1        0.0661
     41 H          -1.6029   -3.3675   -2.3574 H       1  UNL1        0.0660
     42 H          -2.9952   -4.3732   -1.8208 H       1  UNL1        0.0660
     43 H          -3.1077   -3.3963   -3.2978 H       1  UNL1        0.0660
@<TRIPOS>BOND
     1     1    19    1
     2     2    25    1
     3     3    25    1
     4     4    25    1
     5     5    11    1
     6     5    15    1
     7     6    23    1
     8     6    26    1
     9     7    24    1
    10     7    27    1
    11     8    23    2
    12     9    10   ar
    13     9    11    1
    14     9    12   ar
    15    10    13   ar
    16    10    14    1
    17    11    28    1
    18    11    29    1
    19    12    16   ar
    20    12    30    1
    21    13    17   ar
    22    13    31    1
    23    14    23    1
    24    14    24    2
    25    15    19   ar
    26    15    20   ar
    27    16    17   ar
    28    16    32    1
    29    17    33    1
    30    18    21   ar
    31    18    22   ar
    32    18    25    1
    33    19    21   ar
    34    20    22   ar
    35    20    34    1
    36    21    35    1
    37    22    36    1
    38    24    37    1
    39    26    38    1
    40    26    39    1
    41    26    40    1
    42    27    41    1
    43    27    42    1
    44    27    43    1
