REMARK  7 active torsions:
REMARK  status: ('A' for Active; 'I' for Inactive)
REMARK    1  A    between atoms: O_4  and  C_13 
REMARK    2  A    between atoms: O_4  and  C_30 
REMARK    3  A    between atoms: O_6  and  C_33 
REMARK    4  A    between atoms: O_6  and  C_34 
REMARK    5  A    between atoms: O_7  and  N_9 
REMARK    6  A    between atoms: C_12  and  C_14 
REMARK    7  A    between atoms: C_14  and  C_15 
ROOT
ATOM      1 CL   UNL d   1       3.655  -2.144  -0.995  0.00  0.00    -0.081 Cl
ATOM      2  C   UNL d   1       4.331   0.455  -0.485  0.00  0.00     0.099 A 
ATOM      3  C   UNL d   1       4.683  -0.896  -0.391  0.00  0.00     0.068 A 
ATOM      4  C   UNL d   1       5.208   1.444  -0.033  0.00  0.00     0.039 A 
ATOM      5  C   UNL d   1       5.899  -1.255   0.193  0.00  0.00     0.026 A 
ATOM      6  C   UNL d   1       6.423   1.081   0.550  0.00  0.00     0.003 A 
ATOM      7  C   UNL d   1       6.766  -0.267   0.666  0.00  0.00     0.002 A 
ENDROOT
BRANCH   2   8
ATOM      8  O   UNL d   1       3.164   0.853  -1.092  0.00  0.00    -0.288 OA
BRANCH   8   9
ATOM      9  C   UNL d   1       2.035   0.901  -0.277  0.00  0.00     0.199 A 
ATOM     10  N   UNL d   1       2.145   0.653   1.049  0.00  0.00    -0.229 NA
ATOM     11  C   UNL d   1       1.005   0.720   1.750  0.00  0.00     0.268 A 
ATOM     12  N   UNL d   1      -0.204   1.012   1.253  0.00  0.00    -0.229 NA
ATOM     13  C   UNL d   1      -0.253   1.255  -0.076  0.00  0.00     0.199 A 
ATOM     14  C   UNL d   1       0.849   1.215  -0.898  0.00  0.00     0.271 A 
ATOM     15  F   UNL d   1       0.771   1.460  -2.213  0.00  0.00    -0.213 F 
BRANCH  13  16
ATOM     16  O   UNL d   1      -1.475   1.530  -0.685  0.00  0.00    -0.289 OA
BRANCH  16  17
ATOM     17  C   UNL d   1      -2.567   1.574   0.146  0.00  0.00     0.090 A 
ATOM     18  C   UNL d   1      -3.404   0.466   0.298  0.00  0.00     0.033 A 
ATOM     19  C   UNL d   1      -4.549   0.547   1.097  0.00  0.00     0.017 A 
ATOM     20  C   UNL d   1      -4.859   1.748   1.738  0.00  0.00     0.001 A 
ATOM     21  C   UNL d   1      -4.034   2.863   1.573  0.00  0.00     0.003 A 
ATOM     22  C   UNL d   1      -2.894   2.781   0.770  0.00  0.00     0.038 A 
BRANCH  18  23
ATOM     23  C   UNL d   1      -3.108  -0.807  -0.381  0.00  0.00     0.151 C 
ATOM     24  N   UNL d   1      -3.668  -1.237  -1.476  0.00  0.00    -0.129 NA
BRANCH  24  25
ATOM     25  O   UNL d   1      -4.591  -0.306  -1.978  0.00  0.00    -0.261 OA
ATOM     26  C   UNL d   1      -5.108  -0.803  -3.206  0.00  0.00     0.240 C 
ENDBRANCH  24  25
BRANCH  23  27
ATOM     27  C   UNL d   1      -2.087  -1.700   0.276  0.00  0.00     0.223 C 
ATOM     28  O   UNL d   1      -1.017  -1.875  -0.529  0.00  0.00    -0.329 OA
ATOM     29  C   UNL d   1      -0.014  -2.766  -0.027  0.00  0.00     0.206 C 
ATOM     30  C   UNL d   1      -0.628  -3.776   0.911  0.00  0.00     0.230 C 
ATOM     31  O   UNL d   1      -1.261  -3.030   1.949  0.00  0.00    -0.252 OA
ATOM     32  N   UNL d   1      -2.301  -2.213   1.448  0.00  0.00    -0.106 NA
ENDBRANCH  23  27
ENDBRANCH  18  23
ENDBRANCH  16  17
ENDBRANCH  13  16
ENDBRANCH   8   9
ENDBRANCH   2   8
TORSDOF 7
