@<TRIPOS>MOLECULE
*****
 48 51 0 0 0
SMALL
GASTEIGER

@<TRIPOS>ATOM
      1 CL          3.6552   -2.1438   -0.9954 Cl      1  UNL1       -0.0797
      2 F           0.7715    1.4603   -2.2130 F       1  UNL1       -0.1942
      3 O          -1.0169   -1.8754   -0.5286 O.2     1  UNL1       -0.4694
      4 O          -1.4746    1.5301   -0.6845 O.3     1  UNL1       -0.4348
      5 O          -1.2607   -3.0300    1.9493 O.2     1  UNL1       -0.3874
      6 O           3.1645    0.8529   -1.0921 O.3     1  UNL1       -0.4340
      7 O          -4.5915   -0.3058   -1.9779 O.2     1  UNL1       -0.3965
      8 N          -2.3007   -2.2132    1.4478 N.2     1  UNL1       -0.0434
      9 N          -3.6683   -1.2369   -1.4758 N.2     1  UNL1       -0.0792
     10 N          -0.2037    1.0115    1.2532 N.ar    1  UNL1       -0.1984
     11 N           2.1452    0.6528    1.0490 N.ar    1  UNL1       -0.1984
     12 C          -3.4036    0.4655    0.2983 C.ar    1  UNL1        0.0512
     13 C          -2.5673    1.5736    0.1457 C.ar    1  UNL1        0.1399
     14 C          -3.1079   -0.8068   -0.3809 C.2     1  UNL1        0.1774
     15 C          -2.0873   -1.6995    0.2756 C.2     1  UNL1        0.2809
     16 C          -4.5489    0.5475    1.0971 C.ar    1  UNL1       -0.0488
     17 C          -0.0140   -2.7658   -0.0270 C.3     1  UNL1        0.1278
     18 C          -2.8935    2.7806    0.7698 C.ar    1  UNL1       -0.0186
     19 C          -0.6277   -3.7760    0.9112 C.3     1  UNL1        0.1518
     20 C          -4.8585    1.7479    1.7379 C.ar    1  UNL1       -0.0609
     21 C          -4.0335    2.8627    1.5726 C.ar    1  UNL1       -0.0582
     22 C          -0.2525    1.2549   -0.0764 C.ar    1  UNL1        0.2634
     23 C           0.8486    1.2146   -0.8981 C.ar    1  UNL1        0.2464
     24 C           2.0349    0.9013   -0.2773 C.ar    1  UNL1        0.2634
     25 C           4.3312    0.4547   -0.4854 C.ar    1  UNL1        0.1487
     26 C           4.6826   -0.8956   -0.3908 C.ar    1  UNL1        0.0832
     27 C           5.2083    1.4445   -0.0327 C.ar    1  UNL1       -0.0178
     28 C           1.0053    0.7202    1.7496 C.ar    1  UNL1        0.1237
     29 C           5.8993   -1.2547    0.1932 C.ar    1  UNL1       -0.0398
     30 C           6.4228    1.0812    0.5502 C.ar    1  UNL1       -0.0582
     31 C           6.7664   -0.2665    0.6663 C.ar    1  UNL1       -0.0602
     32 C          -5.1077   -0.8035   -3.2057 C.3     1  UNL1        0.1072
     33 H          -5.1979   -0.3168    1.2160 H       1  UNL1        0.0625
     34 H           0.4552   -3.2656   -0.8792 H       1  UNL1        0.0732
     35 H           0.7417   -2.1590    0.4813 H       1  UNL1        0.0732
     36 H          -2.2616    3.6539    0.6353 H       1  UNL1        0.0654
     37 H           0.1372   -4.4178    1.3566 H       1  UNL1        0.0758
     38 H          -1.3741   -4.4060    0.4143 H       1  UNL1        0.0758
     39 H          -5.7469    1.8162    2.3611 H       1  UNL1        0.0618
     40 H          -4.2823    3.7989    2.0664 H       1  UNL1        0.0619
     41 H           4.9433    2.4939   -0.1280 H       1  UNL1        0.0655
     42 H           6.1812   -2.3009    0.2779 H       1  UNL1        0.0633
     43 H           7.1025    1.8491    0.9121 H       1  UNL1        0.0619
     44 H           1.0651    0.5171    2.8139 H       1  UNL1        0.1049
     45 H           7.7138   -0.5480    1.1202 H       1  UNL1        0.0618
     46 H          -5.6204   -1.7564   -3.0430 H       1  UNL1        0.0687
     47 H          -5.8260   -0.0789   -3.5979 H       1  UNL1        0.0687
     48 H          -4.2999   -0.9284   -3.9333 H       1  UNL1        0.0687
@<TRIPOS>BOND
     1     1    26    1
     2     2    23    1
     3     3    15    1
     4     3    17    1
     5     4    13    1
     6     4    22    1
     7     5     8    1
     8     5    19    1
     9     6    24    1
    10     6    25    1
    11     7     9    1
    12     7    32    1
    13     8    15    2
    14     9    14    2
    15    10    22   ar
    16    10    28   ar
    17    11    24   ar
    18    11    28   ar
    19    12    13   ar
    20    12    14    1
    21    12    16   ar
    22    13    18   ar
    23    14    15    1
    24    16    20   ar
    25    16    33    1
    26    17    19    1
    27    17    34    1
    28    17    35    1
    29    18    21   ar
    30    18    36    1
    31    19    37    1
    32    19    38    1
    33    20    21   ar
    34    20    39    1
    35    21    40    1
    36    22    23   ar
    37    23    24   ar
    38    25    26   ar
    39    25    27   ar
    40    26    29   ar
    41    27    30   ar
    42    27    41    1
    43    28    44    1
    44    29    31   ar
    45    29    42    1
    46    30    31   ar
    47    30    43    1
    48    31    45    1
    49    32    46    1
    50    32    47    1
    51    32    48    1
