@<TRIPOS>MOLECULE
*****
 42 43 0 0 0
SMALL
GASTEIGER

@<TRIPOS>ATOM
      1 O          -0.8793    0.9516   -0.0562 O.3     1  UNL1       -0.4871
      2 O          -0.4920   -2.1720   -0.6079 O.3     1  UNL1       -0.4633
      3 O           2.7705   -1.6367    1.8828 O.2     1  UNL1       -0.3964
      4 O           1.0679   -1.9674   -2.2991 O.2     1  UNL1       -0.2431
      5 N           1.9142   -2.2274    0.9398 N.2     1  UNL1       -0.0775
      6 C           1.4410    1.0698    0.3227 C.ar    1  UNL1       -0.0009
      7 C           0.0939    0.9160    0.9831 C.3     1  UNL1        0.1153
      8 C           2.1601   -0.0315   -0.1715 C.ar    1  UNL1        0.0170
      9 C           1.9836    2.3518    0.1390 C.ar    1  UNL1       -0.0547
     10 C          -2.1951    0.8087    0.2942 C.ar    1  UNL1        0.1239
     11 C           3.3984    0.1350   -0.8028 C.ar    1  UNL1       -0.0519
     12 C          -3.1217    0.9821   -0.7508 C.ar    1  UNL1       -0.0088
     13 C           1.6402   -1.4058   -0.0342 C.2     1  UNL1        0.1936
     14 C           3.2178    2.5210   -0.4945 C.ar    1  UNL1       -0.0614
     15 C           3.9257    1.4147   -0.9617 C.ar    1  UNL1       -0.0611
     16 C          -2.6533    0.4974    1.5777 C.ar    1  UNL1       -0.0197
     17 C          -4.4934    0.8517   -0.4869 C.ar    1  UNL1       -0.0554
     18 C          -2.6605    1.3376   -2.1378 C.3     1  UNL1       -0.0362
     19 C          -4.0218    0.3639    1.8258 C.ar    1  UNL1       -0.0583
     20 C          -4.9406    0.5416    0.7960 C.ar    1  UNL1       -0.0613
     21 C           0.7146   -1.8839   -1.1369 C.2     1  UNL1        0.3613
     22 C          -1.4532   -2.6091   -1.5649 C.3     1  UNL1        0.0820
     23 C           3.0511   -2.5946    2.8961 C.3     1  UNL1        0.1072
     24 H           0.0530   -0.0264    1.5406 H       1  UNL1        0.0748
     25 H          -0.0701    1.7414    1.6875 H       1  UNL1        0.0748
     26 H           1.4414    3.2305    0.4834 H       1  UNL1        0.0622
     27 H           3.9487   -0.7275   -1.1715 H       1  UNL1        0.0624
     28 H           3.6251    3.5205   -0.6280 H       1  UNL1        0.0618
     29 H           4.8850    1.5502   -1.4548 H       1  UNL1        0.0618
     30 H          -1.9745    0.3448    2.4097 H       1  UNL1        0.0654
     31 H          -5.2221    0.9928   -1.2819 H       1  UNL1        0.0621
     32 H          -2.2316    2.3448   -2.1441 H       1  UNL1        0.0279
     33 H          -1.9106    0.6222   -2.4897 H       1  UNL1        0.0279
     34 H          -3.4896    1.3188   -2.8530 H       1  UNL1        0.0279
     35 H          -4.3696    0.1194    2.8263 H       1  UNL1        0.0619
     36 H          -6.0049    0.4398    0.9913 H       1  UNL1        0.0618
     37 H          -2.4162   -2.7113   -1.0571 H       1  UNL1        0.0661
     38 H          -1.1671   -3.5852   -1.9686 H       1  UNL1        0.0661
     39 H          -1.5648   -1.8773   -2.3709 H       1  UNL1        0.0661
     40 H           2.1267   -2.8967    3.3980 H       1  UNL1        0.0687
     41 H           3.7173   -2.1353    3.6310 H       1  UNL1        0.0687
     42 H           3.5497   -3.4678    2.4645 H       1  UNL1        0.0687
@<TRIPOS>BOND
     1     1     7    1
     2     1    10    1
     3     2    21    1
     4     2    22    1
     5     3     5    1
     6     3    23    1
     7     4    21    2
     8     5    13    2
     9     6     7    1
    10     6     8   ar
    11     6     9   ar
    12     7    24    1
    13     7    25    1
    14     8    11   ar
    15     8    13    1
    16     9    14   ar
    17     9    26    1
    18    10    12   ar
    19    10    16   ar
    20    11    15   ar
    21    11    27    1
    22    12    17   ar
    23    12    18    1
    24    13    21    1
    25    14    15   ar
    26    14    28    1
    27    15    29    1
    28    16    19   ar
    29    16    30    1
    30    17    20   ar
    31    17    31    1
    32    18    32    1
    33    18    33    1
    34    18    34    1
    35    19    20   ar
    36    19    35    1
    37    20    36    1
    38    22    37    1
    39    22    38    1
    40    22    39    1
    41    23    40    1
    42    23    41    1
    43    23    42    1
