REMARK  7 active torsions:
REMARK  status: ('A' for Active; 'I' for Inactive)
REMARK    1  A    between atoms: O_1  and  C_7 
REMARK    2  A    between atoms: O_1  and  C_13 
REMARK    3  A    between atoms: O_2  and  C_34 
REMARK    4  A    between atoms: O_3  and  N_5 
REMARK    5  A    between atoms: C_6  and  C_7 
REMARK    6  A    between atoms: C_10  and  C_17 
REMARK    7  A    between atoms: C_17  and  C_34 
ROOT
ATOM      1  O   UNL d   1      -0.879   0.952  -0.056  0.00  0.00    -0.346 OA
ENDROOT
BRANCH   1   2
ATOM      2  C   UNL d   1       0.094   0.916   0.983  0.00  0.00     0.215 C 
BRANCH   2   3
ATOM      3  C   UNL d   1       1.441   1.070   0.323  0.00  0.00    -0.021 A 
ATOM      4  C   UNL d   1       2.160  -0.032  -0.172  0.00  0.00     0.009 A 
ATOM      5  C   UNL d   1       3.398   0.135  -0.803  0.00  0.00     0.014 A 
ATOM      6  C   UNL d   1       3.926   1.415  -0.962  0.00  0.00     0.001 A 
ATOM      7  C   UNL d   1       3.218   2.521  -0.495  0.00  0.00     0.001 A 
ATOM      8  C   UNL d   1       1.984   2.352   0.139  0.00  0.00     0.010 A 
BRANCH   4   9
ATOM      9  C   UNL d   1       1.640  -1.406  -0.034  0.00  0.00     0.169 C 
ATOM     10  N   UNL d   1       1.914  -2.227   0.940  0.00  0.00    -0.127 NA
BRANCH  10  11
ATOM     11  O   UNL d   1       2.771  -1.637   1.883  0.00  0.00    -0.261 OA
ATOM     12  C   UNL d   1       3.051  -2.595   2.896  0.00  0.00     0.240 C 
ENDBRANCH  10  11
BRANCH   9  13
ATOM     13  C   UNL d   1       0.715  -1.884  -1.137  0.00  0.00     0.314 C 
ATOM     14  O   UNL d   1       1.068  -1.967  -2.299  0.00  0.00    -0.257 OA
BRANCH  13  15
ATOM     15  O   UNL d   1      -0.492  -2.172  -0.608  0.00  0.00    -0.321 OA
ATOM     16  C   UNL d   1      -1.453  -2.609  -1.565  0.00  0.00     0.213 C 
ENDBRANCH  13  15
ENDBRANCH   9  13
ENDBRANCH   4   9
ENDBRANCH   2   3
ENDBRANCH   1   2
BRANCH   1  17
ATOM     17  C   UNL d   1      -2.195   0.809   0.294  0.00  0.00     0.075 A 
ATOM     18  C   UNL d   1      -3.122   0.982  -0.751  0.00  0.00    -0.029 A 
ATOM     19  C   UNL d   1      -4.493   0.852  -0.487  0.00  0.00     0.009 A 
ATOM     20  C   UNL d   1      -2.660   1.338  -2.138  0.00  0.00     0.051 C 
ATOM     21  C   UNL d   1      -4.941   0.542   0.796  0.00  0.00     0.001 A 
ATOM     22  C   UNL d   1      -4.022   0.364   1.826  0.00  0.00     0.003 A 
ATOM     23  C   UNL d   1      -2.653   0.497   1.578  0.00  0.00     0.037 A 
ENDBRANCH   1  17
TORSDOF 7
