@<TRIPOS>MOLECULE
*****
 46 47 0 0 0
SMALL
GASTEIGER

@<TRIPOS>ATOM
      1 O          -0.7256   -1.2354   -0.0625 O.3     1  UNL1       -0.4871
      2 O           2.3126    0.9102    2.0761 O.3     1  UNL1       -0.3659
      3 O           2.5203    2.5502   -0.4487 O.2     1  UNL1       -0.2726
      4 N           0.2398    2.3697   -0.3159 N.am    1  UNL1       -0.3160
      5 C           2.2536   -0.4924    0.0927 C.ar    1  UNL1       -0.0037
      6 C           1.5382   -1.2864   -0.8415 C.ar    1  UNL1       -0.0043
      7 C           1.6059    0.6717    0.8497 C.3     1  UNL1        0.1592
      8 C           0.0925   -1.0204   -1.2086 C.3     1  UNL1        0.1150
      9 C           3.6176   -0.7772    0.3069 C.ar    1  UNL1       -0.0553
     10 C           2.1978   -2.3501   -1.4882 C.ar    1  UNL1       -0.0550
     11 C          -1.9824   -0.6915   -0.0621 C.ar    1  UNL1        0.1241
     12 C           1.5316    1.9426   -0.0422 C.2     1  UNL1        0.2462
     13 C          -2.6492   -0.7124    1.1754 C.ar    1  UNL1       -0.0088
     14 C           4.2537   -1.8311   -0.3485 C.ar    1  UNL1       -0.0614
     15 C           3.5421   -2.6220   -1.2406 C.ar    1  UNL1       -0.0614
     16 C          -2.6153   -0.1406   -1.1816 C.ar    1  UNL1       -0.0167
     17 C          -3.8926    0.4292   -1.0747 C.ar    1  UNL1       -0.0470
     18 C          -3.9315   -0.1567    1.2750 C.ar    1  UNL1       -0.0551
     19 C          -4.5481    0.4083    0.1590 C.ar    1  UNL1       -0.0584
     20 C          -2.0054   -1.3264    2.3887 C.3     1  UNL1       -0.0362
     21 C          -4.5765    0.9900   -2.2871 C.3     1  UNL1       -0.0396
     22 C           1.6237    1.7915    2.9510 C.3     1  UNL1        0.0379
     23 C          -0.0001    3.5773   -1.0632 C.3     1  UNL1        0.0001
     24 H           0.5976    0.3673    1.1391 H       1  UNL1        0.0744
     25 H           0.0255    0.0050   -1.5869 H       1  UNL1        0.0748
     26 H          -0.2355   -1.6987   -2.0056 H       1  UNL1        0.0748
     27 H           4.1995   -0.1674    0.9970 H       1  UNL1        0.0621
     28 H           1.6646   -2.9774   -2.1999 H       1  UNL1        0.0621
     29 H           5.3050   -2.0296   -0.1587 H       1  UNL1        0.0618
     30 H           4.0352   -3.4453   -1.7502 H       1  UNL1        0.0618
     31 H          -2.1405   -0.1510   -2.1581 H       1  UNL1        0.0657
     32 H          -4.4644   -0.1692    2.2235 H       1  UNL1        0.0621
     33 H          -5.5494    0.8223    0.2583 H       1  UNL1        0.0620
     34 H          -1.0952   -0.7794    2.6536 H       1  UNL1        0.0279
     35 H          -1.7573   -2.3755    2.1971 H       1  UNL1        0.0279
     36 H          -2.6742   -1.2991    3.2555 H       1  UNL1        0.0279
     37 H          -0.5435    1.9261    0.1503 H       1  UNL1        0.1484
     38 H          -3.8497    1.4475   -2.9665 H       1  UNL1        0.0278
     39 H          -5.1086    0.1948   -2.8180 H       1  UNL1        0.0278
     40 H          -5.2935    1.7691   -2.0073 H       1  UNL1        0.0278
     41 H           0.6281    1.4039    3.1877 H       1  UNL1        0.0524
     42 H           2.1951    1.8656    3.8803 H       1  UNL1        0.0524
     43 H           1.5459    2.7922    2.5167 H       1  UNL1        0.0524
     44 H           0.7012    3.6544   -1.8984 H       1  UNL1        0.0426
     45 H          -1.0255    3.5556   -1.4392 H       1  UNL1        0.0426
     46 H           0.1323    4.4329   -0.3960 H       1  UNL1        0.0426
@<TRIPOS>BOND
     1     1     8    1
     2     1    11    1
     3     2     7    1
     4     2    22    1
     5     3    12    2
     6     4    12   am
     7     4    23    1
     8     4    37    1
     9     5     6   ar
    10     5     7    1
    11     5     9   ar
    12     6     8    1
    13     6    10   ar
    14     7    12    1
    15     7    24    1
    16     8    25    1
    17     8    26    1
    18     9    14   ar
    19     9    27    1
    20    10    15   ar
    21    10    28    1
    22    11    13   ar
    23    11    16   ar
    24    13    18   ar
    25    13    20    1
    26    14    15   ar
    27    14    29    1
    28    15    30    1
    29    16    17   ar
    30    16    31    1
    31    17    19   ar
    32    17    21    1
    33    18    19   ar
    34    18    32    1
    35    19    33    1
    36    20    34    1
    37    20    35    1
    38    20    36    1
    39    21    38    1
    40    21    39    1
    41    21    40    1
    42    22    41    1
    43    22    42    1
    44    22    43    1
    45    23    44    1
    46    23    45    1
    47    23    46    1
