REMARK  6 active torsions:
REMARK  status: ('A' for Active; 'I' for Inactive)
REMARK    1  A    between atoms: O_1  and  C_9 
REMARK    2  A    between atoms: O_1  and  C_16 
REMARK    3  A    between atoms: O_2  and  C_7 
REMARK       I    between atoms: N_4  and  C_17 
REMARK    4  A    between atoms: C_5  and  C_7 
REMARK    5  A    between atoms: C_6  and  C_9 
REMARK    6  A    between atoms: C_7  and  C_17 
ROOT
ATOM      1  O   UNL d   1      -0.726  -1.235  -0.063  0.00  0.00    -0.346 OA
ENDROOT
BRANCH   1   2
ATOM      2  C   UNL d   1       0.092  -1.020  -1.209  0.00  0.00     0.215 C 
BRANCH   2   3
ATOM      3  C   UNL d   1       1.538  -1.286  -0.842  0.00  0.00    -0.025 A 
ATOM      4  C   UNL d   1       2.254  -0.492   0.093  0.00  0.00    -0.012 A 
ATOM      5  C   UNL d   1       3.618  -0.777   0.307  0.00  0.00     0.011 A 
ATOM      6  C   UNL d   1       4.254  -1.831  -0.348  0.00  0.00     0.001 A 
ATOM      7  C   UNL d   1       3.542  -2.622  -1.241  0.00  0.00     0.001 A 
ATOM      8  C   UNL d   1       2.198  -2.350  -1.488  0.00  0.00     0.010 A 
BRANCH   4   9
ATOM      9  C   UNL d   1       1.606   0.672   0.850  0.00  0.00     0.246 C 
BRANCH   9  10
ATOM     10  O   UNL d   1       2.313   0.910   2.076  0.00  0.00    -0.377 OA
ATOM     11  C   UNL d   1       1.624   1.792   2.951  0.00  0.00     0.203 C 
ENDBRANCH   9  10
BRANCH   9  12
ATOM     12  C   UNL d   1       1.532   1.943  -0.042  0.00  0.00     0.250 C 
ATOM     13  O   UNL d   1       2.520   2.550  -0.449  0.00  0.00    -0.270 OA
ATOM     14  N   UNL d   1       0.240   2.370  -0.316  0.00  0.00    -0.363 N 
ATOM     15  C   UNL d   1      -0.000   3.577  -1.063  0.00  0.00     0.149 C 
ATOM     16  H   UNL d   1      -0.543   1.926   0.150  0.00  0.00     0.162 HD
ENDBRANCH   9  12
ENDBRANCH   4   9
ENDBRANCH   2   3
ENDBRANCH   1   2
BRANCH   1  17
ATOM     17  C   UNL d   1      -1.982  -0.692  -0.062  0.00  0.00     0.075 A 
ATOM     18  C   UNL d   1      -2.649  -0.712   1.175  0.00  0.00    -0.029 A 
ATOM     19  C   UNL d   1      -3.932  -0.157   1.275  0.00  0.00     0.010 A 
ATOM     20  C   UNL d   1      -2.005  -1.326   2.389  0.00  0.00     0.051 C 
ATOM     21  C   UNL d   1      -4.548   0.408   0.159  0.00  0.00     0.007 A 
ATOM     22  C   UNL d   1      -3.893   0.429  -1.075  0.00  0.00    -0.059 A 
ATOM     23  C   UNL d   1      -2.615  -0.141  -1.182  0.00  0.00     0.044 A 
ATOM     24  C   UNL d   1      -4.577   0.990  -2.287  0.00  0.00     0.048 C 
ENDBRANCH   1  17
TORSDOF 6
