@<TRIPOS>MOLECULE
*****
 37 38 0 0 0
SMALL
GASTEIGER

@<TRIPOS>ATOM
      1 O           0.7238    0.3333   -0.5867 O.3     1  UNL1       -0.4554
      2 O          -2.8101    1.0677   -1.4595 O.2     1  UNL1       -0.3965
      3 O          -0.9696   -1.7741    1.7130 O.2     1  UNL1       -0.2684
      4 N          -2.4138   -2.6683    0.1479 N.am    1  UNL1       -0.3131
      5 N          -2.7129   -0.2396   -0.9562 N.2     1  UNL1       -0.0794
      6 C          -1.2225    0.8597    0.6835 C.ar    1  UNL1        0.0509
      7 C           0.1126    1.1215    0.3642 C.ar    1  UNL1        0.1378
      8 C          -1.9165    1.6623    1.5954 C.ar    1  UNL1       -0.0488
      9 C          -1.9189   -0.2894    0.0800 C.2     1  UNL1        0.1746
     10 C           0.7484    2.2224    0.9488 C.ar    1  UNL1       -0.0187
     11 C          -1.2676    2.7440    2.1893 C.ar    1  UNL1       -0.0609
     12 C           0.0612    3.0239    1.8655 C.ar    1  UNL1       -0.0582
     13 C           2.0308   -0.0247   -0.3563 C.ar    1  UNL1        0.1285
     14 C          -1.7019   -1.6525    0.7442 C.2     1  UNL1        0.2661
     15 C           2.4111   -0.7274    0.7885 C.ar    1  UNL1       -0.0193
     16 C           2.9660    0.2726   -1.3477 C.ar    1  UNL1       -0.0193
     17 C           3.7457   -1.0965    0.9584 C.ar    1  UNL1       -0.0583
     18 C           4.2998   -0.0962   -1.1737 C.ar    1  UNL1       -0.0583
     19 C           4.6896   -0.7768   -0.0192 C.ar    1  UNL1       -0.0615
     20 C          -2.2922   -4.0390    0.5580 C.3     1  UNL1        0.0004
     21 C          -3.5624    1.0341   -2.6655 C.3     1  UNL1        0.1072
     22 H          -2.9534    1.4482    1.8398 H       1  UNL1        0.0625
     23 H           1.7751    2.4707    0.6934 H       1  UNL1        0.0654
     24 H          -1.7977    3.3725    2.9007 H       1  UNL1        0.0618
     25 H           0.5634    3.8734    2.3225 H       1  UNL1        0.0619
     26 H           1.6751   -0.9960    1.5426 H       1  UNL1        0.0654
     27 H           2.6565    0.7950   -2.2483 H       1  UNL1        0.0654
     28 H           4.0470   -1.6403    1.8501 H       1  UNL1        0.0619
     29 H           5.0337    0.1419   -1.9391 H       1  UNL1        0.0619
     30 H          -2.9103   -2.4224   -0.7044 H       1  UNL1        0.1487
     31 H           5.7285   -1.0675    0.1148 H       1  UNL1        0.0618
     32 H          -3.2099   -4.5658    0.2864 H       1  UNL1        0.0426
     33 H          -2.1294   -4.1044    1.6371 H       1  UNL1        0.0426
     34 H          -1.4429   -4.4846    0.0342 H       1  UNL1        0.0426
     35 H          -3.0606    0.4046   -3.4070 H       1  UNL1        0.0687
     36 H          -3.6329    2.0519   -3.0577 H       1  UNL1        0.0687
     37 H          -4.5717    0.6585   -2.4723 H       1  UNL1        0.0687
@<TRIPOS>BOND
     1     1     7    1
     2     1    13    1
     3     2     5    1
     4     2    21    1
     5     3    14    2
     6     4    14   am
     7     4    20    1
     8     4    30    1
     9     5     9    2
    10     6     7   ar
    11     6     8   ar
    12     6     9    1
    13     7    10   ar
    14     8    11   ar
    15     8    22    1
    16     9    14    1
    17    10    12   ar
    18    10    23    1
    19    11    12   ar
    20    11    24    1
    21    12    25    1
    22    13    15   ar
    23    13    16   ar
    24    15    17   ar
    25    15    26    1
    26    16    18   ar
    27    16    27    1
    28    17    19   ar
    29    17    28    1
    30    18    19   ar
    31    18    29    1
    32    19    31    1
    33    20    32    1
    34    20    33    1
    35    20    34    1
    36    21    35    1
    37    21    36    1
    38    21    37    1
