REMARK  5 active torsions:
REMARK  status: ('A' for Active; 'I' for Inactive)
REMARK    1  A    between atoms: O_1  and  C_7 
REMARK    2  A    between atoms: O_1  and  C_17 
REMARK    3  A    between atoms: O_2  and  N_5 
REMARK       I    between atoms: N_4  and  C_18 
REMARK    4  A    between atoms: C_6  and  C_10 
REMARK    5  A    between atoms: C_10  and  C_18 
ROOT
ATOM      1  O   UNL d   1       0.724   0.333  -0.587  0.00  0.00    -0.310 OA
ENDROOT
BRANCH   1   2
ATOM      2  C   UNL d   1       0.113   1.121   0.364  0.00  0.00     0.088 A 
ATOM      3  C   UNL d   1      -1.222   0.860   0.684  0.00  0.00     0.034 A 
ATOM      4  C   UNL d   1      -1.917   1.662   1.595  0.00  0.00     0.017 A 
ATOM      5  C   UNL d   1      -1.268   2.744   2.189  0.00  0.00     0.001 A 
ATOM      6  C   UNL d   1       0.061   3.024   1.865  0.00  0.00     0.003 A 
ATOM      7  C   UNL d   1       0.748   2.222   0.949  0.00  0.00     0.038 A 
BRANCH   3   8
ATOM      8  C   UNL d   1      -1.919  -0.289   0.080  0.00  0.00     0.164 C 
ATOM      9  N   UNL d   1      -2.713  -0.240  -0.956  0.00  0.00    -0.128 NA
BRANCH   9  10
ATOM     10  O   UNL d   1      -2.810   1.068  -1.460  0.00  0.00    -0.261 OA
ATOM     11  C   UNL d   1      -3.562   1.034  -2.666  0.00  0.00     0.240 C 
ENDBRANCH   9  10
BRANCH   8  12
ATOM     12  C   UNL d   1      -1.702  -1.653   0.744  0.00  0.00     0.273 C 
ATOM     13  O   UNL d   1      -0.970  -1.774   1.713  0.00  0.00    -0.266 OA
ATOM     14  N   UNL d   1      -2.414  -2.668   0.148  0.00  0.00    -0.360 N 
ATOM     15  C   UNL d   1      -2.292  -4.039   0.558  0.00  0.00     0.149 C 
ATOM     16  H   UNL d   1      -2.910  -2.422  -0.704  0.00  0.00     0.162 HD
ENDBRANCH   8  12
ENDBRANCH   3   8
ENDBRANCH   1   2
BRANCH   1  17
ATOM     17  C   UNL d   1       2.031  -0.025  -0.356  0.00  0.00     0.076 A 
ATOM     18  C   UNL d   1       2.411  -0.727   0.788  0.00  0.00     0.037 A 
ATOM     19  C   UNL d   1       3.746  -1.097   0.958  0.00  0.00     0.003 A 
ATOM     20  C   UNL d   1       4.690  -0.777  -0.019  0.00  0.00     0.000 A 
ATOM     21  C   UNL d   1       4.300  -0.096  -1.174  0.00  0.00     0.003 A 
ATOM     22  C   UNL d   1       2.966   0.273  -1.348  0.00  0.00     0.037 A 
ENDBRANCH   1  17
TORSDOF 5
