@<TRIPOS>MOLECULE
*****
 45 48 0 0 0
SMALL
GASTEIGER

@<TRIPOS>ATOM
      1 CL          7.7592    1.2454    0.8719 Cl      1  UNL1       -0.0835
      2 O          -0.8310   -1.2932    0.3953 O.3     1  UNL1       -0.4705
      3 O          -2.9789    3.3603    0.7177 O.2     1  UNL1       -0.2428
      4 N          -2.3940    1.3039   -0.3339 N.ar    1  UNL1       -0.1604
      5 N           2.5108   -1.3592   -0.1301 N.ar    1  UNL1       -0.2364
      6 N          -1.2151    3.0751   -0.7715 N.ar    1  UNL1       -0.1963
      7 N          -1.4018    0.9969   -1.2274 N.ar    1  UNL1       -0.0378
      8 N           1.3902   -0.8726    0.4583 N.ar    1  UNL1       -0.1287
      9 N          -0.7012    2.0257   -1.4662 N.ar    1  UNL1       -0.0427
     10 C          -3.1818   -1.0666   -0.0470 C.ar    1  UNL1        0.0182
     11 C          -3.3580    0.3457    0.0754 C.ar    1  UNL1        0.0790
     12 C          -4.2465   -1.9371    0.3360 C.ar    1  UNL1       -0.0420
     13 C          -1.8653   -1.6756   -0.5088 C.3     1  UNL1        0.1185
     14 C          -4.5653    0.8213    0.6230 C.ar    1  UNL1       -0.0356
     15 C          -5.4358   -1.4065    0.8561 C.ar    1  UNL1       -0.0583
     16 C          -5.5911   -0.0386    1.0067 C.ar    1  UNL1       -0.0595
     17 C          -4.1477   -3.4387    0.2322 C.3     1  UNL1       -0.0393
     18 C          -2.3047    2.6626   -0.0244 C.ar    1  UNL1        0.3686
     19 C           0.4049   -1.6144   -0.0342 C.ar    1  UNL1        0.2345
     20 C           3.7796   -0.7576    0.1090 C.ar    1  UNL1        0.0655
     21 C           0.8552   -2.6194   -0.9007 C.ar    1  UNL1        0.0196
     22 C           2.2190   -2.4397   -0.9400 C.ar    1  UNL1        0.0349
     23 C          -0.6056    4.3710   -0.7753 C.3     1  UNL1        0.0371
     24 C           4.9487   -1.2634   -0.4775 C.ar    1  UNL1       -0.0349
     25 C           3.8588    0.3733    0.9392 C.ar    1  UNL1       -0.0349
     26 C           6.1788   -0.6409   -0.2356 C.ar    1  UNL1       -0.0414
     27 C           5.0897    0.9924    1.1749 C.ar    1  UNL1       -0.0414
     28 C           6.2439    0.4830    0.5862 C.ar    1  UNL1        0.0411
     29 H          -1.9127   -2.7678   -0.5248 H       1  UNL1        0.0749
     30 H          -1.6619   -1.3632   -1.5407 H       1  UNL1        0.0749
     31 H          -4.7522    1.8857    0.7411 H       1  UNL1        0.0639
     32 H          -6.2495   -2.0622    1.1601 H       1  UNL1        0.0620
     33 H          -6.5123    0.3663    1.4178 H       1  UNL1        0.0618
     34 H          -3.9333   -3.7365   -0.7993 H       1  UNL1        0.0278
     35 H          -5.0867   -3.9269    0.5153 H       1  UNL1        0.0278
     36 H          -3.3689   -3.8160    0.9023 H       1  UNL1        0.0278
     37 H           0.2887   -3.3753   -1.4229 H       1  UNL1        0.0686
     38 H           2.9822   -2.9794   -1.4780 H       1  UNL1        0.0832
     39 H           0.3899    4.2939   -0.3291 H       1  UNL1        0.0475
     40 H          -1.2060    5.0776   -0.1968 H       1  UNL1        0.0475
     41 H          -0.5192    4.7221   -1.8071 H       1  UNL1        0.0475
     42 H           4.9425   -2.1354   -1.1238 H       1  UNL1        0.0639
     43 H           2.9661    0.7881    1.4062 H       1  UNL1        0.0639
     44 H           7.0820   -1.0374   -0.6927 H       1  UNL1        0.0633
     45 H           5.1360    1.8689    1.8157 H       1  UNL1        0.0633
@<TRIPOS>BOND
     1     1    28    1
     2     2    13    1
     3     2    19    1
     4     3    18    2
     5     4     7   ar
     6     4    11    1
     7     4    18   ar
     8     5     8   ar
     9     5    20    1
    10     5    22   ar
    11     6     9   ar
    12     6    18   ar
    13     6    23    1
    14     7     9   ar
    15     8    19   ar
    16    10    11   ar
    17    10    12   ar
    18    10    13    1
    19    11    14   ar
    20    12    15   ar
    21    12    17    1
    22    13    29    1
    23    13    30    1
    24    14    16   ar
    25    14    31    1
    26    15    16   ar
    27    15    32    1
    28    16    33    1
    29    17    34    1
    30    17    35    1
    31    17    36    1
    32    19    21   ar
    33    20    24   ar
    34    20    25   ar
    35    21    22   ar
    36    21    37    1
    37    22    38    1
    38    23    39    1
    39    23    40    1
    40    23    41    1
    41    24    26   ar
    42    24    42    1
    43    25    27   ar
    44    25    43    1
    45    26    28   ar
    46    26    44    1
    47    27    28   ar
    48    27    45    1
