REMARK  5 active torsions:
REMARK  status: ('A' for Active; 'I' for Inactive)
REMARK    1  A    between atoms: O_2  and  C_13 
REMARK    2  A    between atoms: O_2  and  C_27 
REMARK    3  A    between atoms: N_4  and  C_11 
REMARK    4  A    between atoms: N_5  and  C_28 
REMARK    5  A    between atoms: C_10  and  C_13 
ROOT
ATOM      1 CL   UNL d   1       7.759   1.245   0.872  0.00  0.00    -0.084 Cl
ATOM      2  C   UNL d   1       3.780  -0.758   0.109  0.00  0.00     0.058 A 
ATOM      3  C   UNL d   1       4.949  -1.263  -0.477  0.00  0.00     0.033 A 
ATOM      4  C   UNL d   1       3.859   0.373   0.939  0.00  0.00     0.033 A 
ATOM      5  C   UNL d   1       6.179  -0.641  -0.236  0.00  0.00     0.026 A 
ATOM      6  C   UNL d   1       5.090   0.992   1.175  0.00  0.00     0.026 A 
ATOM      7  C   UNL d   1       6.244   0.483   0.586  0.00  0.00     0.034 A 
ENDROOT
BRANCH   2   8
ATOM      8  N   UNL d   1       2.511  -1.359  -0.130  0.00  0.00    -0.243 N 
ATOM      9  N   UNL d   1       1.390  -0.873   0.458  0.00  0.00    -0.142 NA
ATOM     10  C   UNL d   1       0.405  -1.614  -0.034  0.00  0.00     0.185 A 
ATOM     11  C   UNL d   1       0.855  -2.619  -0.901  0.00  0.00     0.079 A 
ATOM     12  C   UNL d   1       2.219  -2.440  -0.940  0.00  0.00     0.123 A 
BRANCH  10  13
ATOM     13  O   UNL d   1      -0.831  -1.293   0.395  0.00  0.00    -0.329 OA
BRANCH  13  14
ATOM     14  C   UNL d   1      -1.865  -1.676  -0.509  0.00  0.00     0.219 C 
BRANCH  14  15
ATOM     15  C   UNL d   1      -3.182  -1.067  -0.047  0.00  0.00     0.001 A 
ATOM     16  C   UNL d   1      -3.358   0.346   0.075  0.00  0.00     0.074 A 
ATOM     17  C   UNL d   1      -4.565   0.821   0.623  0.00  0.00     0.032 A 
ATOM     18  C   UNL d   1      -5.591  -0.039   1.007  0.00  0.00     0.003 A 
ATOM     19  C   UNL d   1      -5.436  -1.407   0.856  0.00  0.00     0.007 A 
ATOM     20  C   UNL d   1      -4.247  -1.937   0.336  0.00  0.00    -0.051 A 
ATOM     21  C   UNL d   1      -4.148  -3.439   0.232  0.00  0.00     0.049 C 
BRANCH  16  22
ATOM     22  N   UNL d   1      -2.394   1.304  -0.334  0.00  0.00    -0.161 N 
ATOM     23  N   UNL d   1      -1.402   0.997  -1.227  0.00  0.00    -0.038 NA
ATOM     24  N   UNL d   1      -0.701   2.026  -1.466  0.00  0.00    -0.043 NA
ATOM     25  N   UNL d   1      -1.215   3.075  -0.771  0.00  0.00    -0.203 N 
ATOM     26  C   UNL d   1      -2.305   2.663  -0.024  0.00  0.00     0.368 A 
ATOM     27  C   UNL d   1      -0.606   4.371  -0.775  0.00  0.00     0.187 C 
ATOM     28  O   UNL d   1      -2.979   3.360   0.718  0.00  0.00    -0.243 OA
ENDBRANCH  16  22
ENDBRANCH  14  15
ENDBRANCH  13  14
ENDBRANCH  10  13
ENDBRANCH   2   8
TORSDOF 5
