REMARK  10 active torsions:
REMARK  status: ('A' for Active; 'I' for Inactive)
REMARK    1  A    between atoms: O_1  and  N_8 
REMARK    2  A    between atoms: O_1  and  C_13 
REMARK    3  A    between atoms: O_2  and  N_6 
REMARK    4  A    between atoms: O_4  and  N_9 
REMARK    5  A    between atoms: O_5  and  N_10 
REMARK       I    between atoms: N_7  and  C_25 
REMARK    6  A    between atoms: C_11  and  C_13 
REMARK    7  A    between atoms: C_12  and  C_20 
REMARK    8  A    between atoms: C_20  and  C_25 
REMARK    9  A    between atoms: C_26  and  C_27 
REMARK   10  A    between atoms: C_27  and  C_32 
ROOT
ATOM      1  O   UNL d   1      -0.502   1.688  -0.160  0.00  0.00    -0.252 OA
ENDROOT
BRANCH   1   2
ATOM      2  N   UNL d   1       0.755   1.309  -0.651  0.00  0.00    -0.136 NA
ATOM      3  C   UNL d   1       1.657   1.429   0.275  0.00  0.00     0.090 C 
ATOM      4  C   UNL d   1       1.420   1.919   1.674  0.00  0.00     0.075 C 
BRANCH   3   5
ATOM      5  C   UNL d   1       3.068   1.032  -0.054  0.00  0.00     0.136 C 
ATOM      6  N   UNL d   1       3.827   1.954  -0.574  0.00  0.00    -0.130 NA
BRANCH   6   7
ATOM      7  O   UNL d   1       5.120   1.473  -0.829  0.00  0.00    -0.261 OA
ATOM      8  C   UNL d   1       5.852   2.488  -1.507  0.00  0.00     0.240 C 
ENDBRANCH   6   7
BRANCH   5   9
ATOM      9  C   UNL d   1       3.564  -0.351   0.274  0.00  0.00     0.090 C 
ATOM     10  N   UNL d   1       3.076  -1.345  -0.405  0.00  0.00    -0.137 NA
ATOM     11  C   UNL d   1       4.547  -0.463   1.405  0.00  0.00     0.075 C 
BRANCH  10  12
ATOM     12  O   UNL d   1       3.613  -2.563   0.038  0.00  0.00    -0.261 OA
ATOM     13  C   UNL d   1       3.155  -3.597  -0.826  0.00  0.00     0.240 C 
ENDBRANCH  10  12
ENDBRANCH   5   9
ENDBRANCH   3   5
ENDBRANCH   1   2
BRANCH   1  14
ATOM     14  C   UNL d   1      -1.476   1.551  -1.195  0.00  0.00     0.243 C 
BRANCH  14  15
ATOM     15  C   UNL d   1      -2.819   1.389  -0.535  0.00  0.00    -0.019 A 
ATOM     16  C   UNL d   1      -3.183   0.192   0.108  0.00  0.00     0.009 A 
ATOM     17  C   UNL d   1      -4.420   0.065   0.751  0.00  0.00     0.014 A 
ATOM     18  C   UNL d   1      -5.306   1.140   0.762  0.00  0.00     0.001 A 
ATOM     19  C   UNL d   1      -4.958   2.336   0.135  0.00  0.00     0.001 A 
ATOM     20  C   UNL d   1      -3.723   2.462  -0.506  0.00  0.00     0.010 A 
BRANCH  16  21
ATOM     21  C   UNL d   1      -2.276  -0.976   0.109  0.00  0.00     0.162 C 
ATOM     22  N   UNL d   1      -2.121  -1.815  -0.879  0.00  0.00    -0.128 NA
BRANCH  22  23
ATOM     23  O   UNL d   1      -2.957  -1.494  -1.961  0.00  0.00    -0.261 OA
ATOM     24  C   UNL d   1      -2.788  -2.481  -2.970  0.00  0.00     0.240 C 
ENDBRANCH  22  23
BRANCH  21  25
ATOM     25  C   UNL d   1      -1.445  -1.215   1.370  0.00  0.00     0.273 C 
ATOM     26  O   UNL d   1      -1.883  -0.926   2.472  0.00  0.00    -0.266 OA
ATOM     27  N   UNL d   1      -0.217  -1.785   1.120  0.00  0.00    -0.360 N 
ATOM     28  C   UNL d   1       0.701  -2.137   2.166  0.00  0.00     0.149 C 
ATOM     29  H   UNL d   1       0.034  -1.935   0.146  0.00  0.00     0.162 HD
ENDBRANCH  21  25
ENDBRANCH  16  21
ENDBRANCH  14  15
ENDBRANCH   1  14
TORSDOF 10
