@<TRIPOS>MOLECULE
*****
 53 53 0 0 0
SMALL
GASTEIGER

@<TRIPOS>ATOM
      1 O          -0.5022    1.6877   -0.1596 O.2     1  UNL1       -0.3887
      2 O          -2.9574   -1.4941   -1.9606 O.2     1  UNL1       -0.3965
      3 O          -1.8826   -0.9259    2.4723 O.2     1  UNL1       -0.2684
      4 O           5.1198    1.4727   -0.8287 O.2     1  UNL1       -0.3965
      5 O           3.6134   -2.5628    0.0381 O.2     1  UNL1       -0.3968
      6 N          -2.1207   -1.8145   -0.8793 N.2     1  UNL1       -0.0795
      7 N          -0.2173   -1.7845    1.1200 N.am    1  UNL1       -0.3131
      8 N           0.7549    1.3088   -0.6515 N.2     1  UNL1       -0.0873
      9 N           3.8270    1.9542   -0.5735 N.2     1  UNL1       -0.0816
     10 N           3.0758   -1.3455   -0.4048 N.2     1  UNL1       -0.0879
     11 C          -2.8189    1.3889   -0.5348 C.ar    1  UNL1        0.0016
     12 C          -3.1833    0.1921    0.1082 C.ar    1  UNL1        0.0151
     13 C          -1.4761    1.5505   -1.1954 C.3     1  UNL1        0.1435
     14 C          -3.7230    2.4620   -0.5057 C.ar    1  UNL1       -0.0546
     15 C          -4.4200    0.0646    0.7506 C.ar    1  UNL1       -0.0519
     16 C          -2.2756   -0.9758    0.1091 C.2     1  UNL1        0.1714
     17 C          -4.9583    2.3356    0.1353 C.ar    1  UNL1       -0.0614
     18 C          -5.3065    1.1398    0.7621 C.ar    1  UNL1       -0.0611
     19 C          -1.4450   -1.2153    1.3696 C.2     1  UNL1        0.2660
     20 C           1.6571    1.4289    0.2746 C.2     1  UNL1        0.1073
     21 C           3.0677    1.0318   -0.0544 C.2     1  UNL1        0.1507
     22 C           1.4196    1.9189    1.6742 C.3     1  UNL1       -0.0170
     23 C           3.5637   -0.3511    0.2736 C.2     1  UNL1        0.1072
     24 C           0.7007   -2.1374    2.1659 C.3     1  UNL1        0.0004
     25 C           4.5474   -0.4626    1.4047 C.3     1  UNL1       -0.0170
     26 C          -2.7882   -2.4812   -2.9699 C.3     1  UNL1        0.1072
     27 C           5.8517    2.4879   -1.5067 C.3     1  UNL1        0.1072
     28 C           3.1547   -3.5968   -0.8257 C.3     1  UNL1        0.1072
     29 H          -1.2563    0.6937   -1.8426 H       1  UNL1        0.0775
     30 H          -1.4477    2.4503   -1.8202 H       1  UNL1        0.0775
     31 H          -3.4675    3.4090   -0.9770 H       1  UNL1        0.0622
     32 H          -4.6905   -0.8656    1.2443 H       1  UNL1        0.0624
     33 H          -5.6485    3.1759    0.1511 H       1  UNL1        0.0618
     34 H          -6.2663    1.0470    1.2638 H       1  UNL1        0.0618
     35 H           0.0344   -1.9346    0.1465 H       1  UNL1        0.1487
     36 H           1.0089    2.9318    1.6430 H       1  UNL1        0.0294
     37 H           2.3530    1.9378    2.2431 H       1  UNL1        0.0294
     38 H           0.7134    1.2558    2.1810 H       1  UNL1        0.0294
     39 H           1.3880   -1.3029    2.3208 H       1  UNL1        0.0426
     40 H           1.2613   -3.0209    1.8528 H       1  UNL1        0.0426
     41 H           0.1685   -2.3470    3.0973 H       1  UNL1        0.0426
     42 H           4.1334   -1.1032    2.1883 H       1  UNL1        0.0294
     43 H           4.7591    0.5190    1.8370 H       1  UNL1        0.0294
     44 H           5.4815   -0.8955    1.0366 H       1  UNL1        0.0294
     45 H          -1.7506   -2.4943   -3.3171 H       1  UNL1        0.0687
     46 H          -3.0713   -3.4665   -2.5870 H       1  UNL1        0.0687
     47 H          -3.4390   -2.2301   -3.8115 H       1  UNL1        0.0687
     48 H           6.8598    2.1139   -1.7036 H       1  UNL1        0.0687
     49 H           5.9230    3.3840   -0.8826 H       1  UNL1        0.0687
     50 H           5.3713    2.7283   -2.4601 H       1  UNL1        0.0687
     51 H           2.0621   -3.6545   -0.8011 H       1  UNL1        0.0687
     52 H           3.5010   -3.4167   -1.8480 H       1  UNL1        0.0687
     53 H           3.5664   -4.5470   -0.4757 H       1  UNL1        0.0687
@<TRIPOS>BOND
     1     1     8    1
     2     1    13    1
     3     2     6    1
     4     2    26    1
     5     3    19    2
     6     4     9    1
     7     4    27    1
     8     5    10    1
     9     5    28    1
    10     6    16    2
    11     7    19   am
    12     7    24    1
    13     7    35    1
    14     8    20    2
    15     9    21    2
    16    10    23    2
    17    11    12   ar
    18    11    13    1
    19    11    14   ar
    20    12    15   ar
    21    12    16    1
    22    13    29    1
    23    13    30    1
    24    14    17   ar
    25    14    31    1
    26    15    18   ar
    27    15    32    1
    28    16    19    1
    29    17    18   ar
    30    17    33    1
    31    18    34    1
    32    20    21    1
    33    20    22    1
    34    21    23    1
    35    22    36    1
    36    22    37    1
    37    22    38    1
    38    23    25    1
    39    24    39    1
    40    24    40    1
    41    24    41    1
    42    25    42    1
    43    25    43    1
    44    25    44    1
    45    26    45    1
    46    26    46    1
    47    26    47    1
    48    27    48    1
    49    27    49    1
    50    27    50    1
    51    28    51    1
    52    28    52    1
    53    28    53    1
