@<TRIPOS>MOLECULE
*****
 50 51 0 0 0
SMALL
GASTEIGER

@<TRIPOS>ATOM
      1 CL          4.5013    2.7678   -1.1964 Cl      1  UNL1       -0.0829
      2 CL          3.8905   -2.4111    0.5436 Cl      1  UNL1       -0.0829
      3 O          -1.2250    1.4543    0.6044 O.2     1  UNL1       -0.3888
      4 O          -3.1360   -0.9212   -2.5189 O.2     1  UNL1       -0.3965
      5 O          -2.8773   -1.9958    1.9249 O.2     1  UNL1       -0.2684
      6 N          -2.4668   -1.5807   -1.4753 N.2     1  UNL1       -0.0795
      7 N          -0.8842   -2.0871    0.7507 N.am    1  UNL1       -0.3131
      8 N           0.1107    1.2963    0.2070 N.2     1  UNL1       -0.0896
      9 C          -3.4468    1.2997   -0.2094 C.ar    1  UNL1        0.0016
     10 C          -3.8224   -0.0495   -0.0756 C.ar    1  UNL1        0.0151
     11 C          -2.0337    1.6957   -0.5472 C.3     1  UNL1        0.1435
     12 C          -4.4178    2.2862    0.0230 C.ar    1  UNL1       -0.0546
     13 C          -5.1311   -0.4047    0.2699 C.ar    1  UNL1       -0.0519
     14 C          -2.8468   -1.1355   -0.3083 C.2     1  UNL1        0.1714
     15 C          -5.7254    1.9324    0.3668 C.ar    1  UNL1       -0.0614
     16 C          -6.0817    0.5901    0.4902 C.ar    1  UNL1       -0.0611
     17 C          -2.2139   -1.7783    0.9236 C.2     1  UNL1        0.2660
     18 C           4.2598    0.1703   -0.3282 C.ar    1  UNL1        0.0117
     19 C           0.8786    1.0625    1.2322 C.2     1  UNL1        0.0770
     20 C           2.8224    0.4080   -0.1220 C.2     1  UNL1       -0.0500
     21 C           2.3435    0.8517    1.0489 C.2     1  UNL1       -0.0369
     22 C           5.1020    1.1904   -0.8087 C.ar    1  UNL1        0.0495
     23 C           4.8346   -1.0828   -0.0443 C.ar    1  UNL1        0.0495
     24 C           0.3672    1.0130    2.6562 C.3     1  UNL1       -0.0192
     25 C           6.4709    0.9638   -0.9954 C.ar    1  UNL1       -0.0427
     26 C           6.2040   -1.3051   -0.2320 C.ar    1  UNL1       -0.0427
     27 C           7.0219   -0.2824   -0.7066 C.ar    1  UNL1       -0.0590
     28 C          -0.1173   -2.7962    1.7362 C.3     1  UNL1        0.0004
     29 C          -2.7176   -1.4897   -3.7531 C.3     1  UNL1        0.1072
     30 H          -1.9706    2.7608   -0.7973 H       1  UNL1        0.0775
     31 H          -1.6730    1.1328   -1.4157 H       1  UNL1        0.0775
     32 H          -4.1599    3.3406   -0.0551 H       1  UNL1        0.0622
     33 H          -5.4082   -1.4511    0.3728 H       1  UNL1        0.0624
     34 H          -6.4668    2.7076    0.5456 H       1  UNL1        0.0618
     35 H          -7.0982    0.3188    0.7633 H       1  UNL1        0.0618
     36 H           2.1751    0.2076   -0.9721 H       1  UNL1        0.0625
     37 H           2.9830    1.0469    1.9018 H       1  UNL1        0.0637
     38 H          -0.5051   -1.9374   -0.1795 H       1  UNL1        0.1487
     39 H          -0.0324    1.9929    2.9329 H       1  UNL1        0.0294
     40 H           1.1649    0.7511    3.3566 H       1  UNL1        0.0294
     41 H          -0.4227    0.2617    2.7419 H       1  UNL1        0.0294
     42 H           7.1126    1.7593   -1.3683 H       1  UNL1        0.0632
     43 H           6.6380   -2.2776   -0.0099 H       1  UNL1        0.0632
     44 H           8.0854   -0.4566   -0.8530 H       1  UNL1        0.0618
     45 H           0.8936   -2.3837    1.7477 H       1  UNL1        0.0426
     46 H          -0.0778   -3.8499    1.4494 H       1  UNL1        0.0426
     47 H          -0.5666   -2.7031    2.7281 H       1  UNL1        0.0426
     48 H          -1.6396   -1.3559   -3.8854 H       1  UNL1        0.0687
     49 H          -2.9734   -2.5532   -3.7864 H       1  UNL1        0.0687
     50 H          -3.2391   -0.9760   -4.5649 H       1  UNL1        0.0687
@<TRIPOS>BOND
     1     1    22    1
     2     2    23    1
     3     3     8    1
     4     3    11    1
     5     4     6    1
     6     4    29    1
     7     5    17    2
     8     6    14    2
     9     7    17   am
    10     7    28    1
    11     7    38    1
    12     8    19    2
    13     9    10   ar
    14     9    11    1
    15     9    12   ar
    16    10    13   ar
    17    10    14    1
    18    11    30    1
    19    11    31    1
    20    12    15   ar
    21    12    32    1
    22    13    16   ar
    23    13    33    1
    24    14    17    1
    25    15    16   ar
    26    15    34    1
    27    16    35    1
    28    18    20    1
    29    18    22   ar
    30    18    23   ar
    31    19    21    1
    32    19    24    1
    33    20    21    2
    34    20    36    1
    35    21    37    1
    36    22    25   ar
    37    23    26   ar
    38    24    39    1
    39    24    40    1
    40    24    41    1
    41    25    27   ar
    42    25    42    1
    43    26    27   ar
    44    26    43    1
    45    27    44    1
    46    28    45    1
    47    28    46    1
    48    28    47    1
    49    29    48    1
    50    29    49    1
    51    29    50    1
