REMARK  8 active torsions:
REMARK  status: ('A' for Active; 'I' for Inactive)
REMARK    1  A    between atoms: O_3  and  N_8 
REMARK    2  A    between atoms: O_3  and  C_11 
REMARK    3  A    between atoms: O_4  and  N_6 
REMARK       I    between atoms: N_7  and  C_23 
REMARK    4  A    between atoms: C_9  and  C_11 
REMARK    5  A    between atoms: C_10  and  C_18 
REMARK    6  A    between atoms: C_18  and  C_23 
REMARK    7  A    between atoms: C_24  and  C_26 
REMARK    8  A    between atoms: C_25  and  C_28 
ROOT
ATOM      1 CL   UNL d   1       4.501   2.768  -1.196  0.00  0.00    -0.083 Cl
ATOM      2 CL   UNL d   1       3.890  -2.411   0.544  0.00  0.00    -0.083 Cl
ATOM      3  C   UNL d   1       4.260   0.170  -0.328  0.00  0.00     0.007 A 
ATOM      4  C   UNL d   1       5.102   1.190  -0.809  0.00  0.00     0.045 A 
ATOM      5  C   UNL d   1       4.835  -1.083  -0.044  0.00  0.00     0.045 A 
ATOM      6  C   UNL d   1       6.471   0.964  -0.995  0.00  0.00     0.025 A 
ATOM      7  C   UNL d   1       6.204  -1.305  -0.232  0.00  0.00     0.025 A 
ATOM      8  C   UNL d   1       7.022  -0.282  -0.707  0.00  0.00     0.003 A 
ENDROOT
BRANCH   3   9
ATOM      9  C   UNL d   1       2.822   0.408  -0.122  0.00  0.00     0.017 C 
ATOM     10  C   UNL d   1       2.344   0.852   1.049  0.00  0.00     0.030 C 
BRANCH  10  11
ATOM     11  C   UNL d   1       0.879   1.063   1.232  0.00  0.00     0.058 C 
ATOM     12  N   UNL d   1       0.111   1.296   0.207  0.00  0.00    -0.139 NA
ATOM     13  C   UNL d   1       0.367   1.013   2.656  0.00  0.00     0.072 C 
BRANCH  12  14
ATOM     14  O   UNL d   1      -1.225   1.454   0.604  0.00  0.00    -0.252 OA
BRANCH  14  15
ATOM     15  C   UNL d   1      -2.034   1.696  -0.547  0.00  0.00     0.243 C 
BRANCH  15  16
ATOM     16  C   UNL d   1      -3.447   1.300  -0.209  0.00  0.00    -0.019 A 
ATOM     17  C   UNL d   1      -3.822  -0.050  -0.076  0.00  0.00     0.009 A 
ATOM     18  C   UNL d   1      -5.131  -0.405   0.270  0.00  0.00     0.014 A 
ATOM     19  C   UNL d   1      -6.082   0.590   0.490  0.00  0.00     0.001 A 
ATOM     20  C   UNL d   1      -5.725   1.932   0.367  0.00  0.00     0.001 A 
ATOM     21  C   UNL d   1      -4.418   2.286   0.023  0.00  0.00     0.010 A 
BRANCH  17  22
ATOM     22  C   UNL d   1      -2.847  -1.136  -0.308  0.00  0.00     0.162 C 
ATOM     23  N   UNL d   1      -2.467  -1.581  -1.475  0.00  0.00    -0.128 NA
BRANCH  23  24
ATOM     24  O   UNL d   1      -3.136  -0.921  -2.519  0.00  0.00    -0.261 OA
ATOM     25  C   UNL d   1      -2.718  -1.490  -3.753  0.00  0.00     0.240 C 
ENDBRANCH  23  24
BRANCH  22  26
ATOM     26  C   UNL d   1      -2.214  -1.778   0.924  0.00  0.00     0.273 C 
ATOM     27  O   UNL d   1      -2.877  -1.996   1.925  0.00  0.00    -0.266 OA
ATOM     28  N   UNL d   1      -0.884  -2.087   0.751  0.00  0.00    -0.360 N 
ATOM     29  C   UNL d   1      -0.117  -2.796   1.736  0.00  0.00     0.149 C 
ATOM     30  H   UNL d   1      -0.505  -1.937  -0.179  0.00  0.00     0.162 HD
ENDBRANCH  22  26
ENDBRANCH  17  22
ENDBRANCH  15  16
ENDBRANCH  14  15
ENDBRANCH  12  14
ENDBRANCH  10  11
ENDBRANCH   3   9
TORSDOF 8
