@<TRIPOS>MOLECULE
*****
 42 43 0 0 0
SMALL
GASTEIGER

@<TRIPOS>ATOM
      1 F           5.6664    1.1854   -0.2156 F       1  UNL1       -0.1644
      2 F           4.3213    1.4541   -1.8992 F       1  UNL1       -0.1644
      3 F           3.8387    2.3309    0.0369 F       1  UNL1       -0.1644
      4 O           0.2792   -1.4232   -0.3963 O.3     1  UNL1       -0.4716
      5 O          -2.5243    2.5706   -0.0855 O.3     1  UNL1       -0.4644
      6 O          -2.0732   -1.5692    2.1705 O.2     1  UNL1       -0.5018
      7 O          -1.9691    2.5904    2.1393 O.2     1  UNL1       -0.2448
      8 N           2.2685   -0.1525   -0.4748 N.ar    1  UNL1       -0.2089
      9 C          -1.7643   -0.5438   -1.2358 C.ar    1  UNL1       -0.0023
     10 C          -2.7109   -0.1734   -0.2569 C.ar    1  UNL1       -0.0017
     11 C          -0.2818   -0.2942   -1.0640 C.3     1  UNL1        0.1168
     12 C          -2.2075   -1.2059   -2.3956 C.ar    1  UNL1       -0.0548
     13 C          -4.0709   -0.4587   -0.4675 C.ar    1  UNL1       -0.0533
     14 C          -2.3311    0.5044    0.9976 C.2     1  UNL1        0.1005
     15 C          -3.5616   -1.4773   -2.5932 C.ar    1  UNL1       -0.0614
     16 C          -4.4932   -1.1027   -1.6306 C.ar    1  UNL1       -0.0612
     17 C           1.6208   -1.2816   -0.1193 C.ar    1  UNL1        0.2155
     18 C          -2.2508    1.9896    1.1113 C.2     1  UNL1        0.3425
     19 C          -2.0324   -0.1990    2.1038 C.2     1  UNL1        0.0986
     20 C           2.2270   -2.3425    0.5300 C.ar    1  UNL1        0.0000
     21 C           3.5957   -0.0576   -0.1685 C.ar    1  UNL1        0.1473
     22 C           4.2729   -1.0884    0.4882 C.ar    1  UNL1       -0.0314
     23 C           3.5777   -2.2428    0.8388 C.ar    1  UNL1       -0.0548
     24 C           4.3427    1.2115   -0.5571 C.3     1  UNL1        0.4343
     25 C          -2.4603    3.9961   -0.0715 C.3     1  UNL1        0.0820
     26 C          -1.1155   -2.0824    3.0915 C.3     1  UNL1        0.0780
     27 H           0.1807   -0.1699   -2.0525 H       1  UNL1        0.0748
     28 H          -0.1185    0.6310   -0.4982 H       1  UNL1        0.0748
     29 H          -1.4909   -1.5191   -3.1524 H       1  UNL1        0.0622
     30 H          -4.8103   -0.1842    0.2819 H       1  UNL1        0.0624
     31 H          -3.8872   -1.9877   -3.4959 H       1  UNL1        0.0618
     32 H          -5.5479   -1.3182   -1.7792 H       1  UNL1        0.0618
     33 H          -1.7582    0.2740    3.0407 H       1  UNL1        0.1031
     34 H           1.6554   -3.2270    0.7884 H       1  UNL1        0.0671
     35 H           5.3300   -0.9996    0.7261 H       1  UNL1        0.0638
     36 H           4.0847   -3.0578    1.3483 H       1  UNL1        0.0620
     37 H          -1.4446    4.3304    0.1620 H       1  UNL1        0.0661
     38 H          -2.7227    4.3568   -1.0700 H       1  UNL1        0.0661
     39 H          -3.1790    4.4074    0.6443 H       1  UNL1        0.0661
     40 H          -1.3723   -1.7957    4.1169 H       1  UNL1        0.0660
     41 H          -0.1062   -1.7382    2.8413 H       1  UNL1        0.0660
     42 H          -1.1320   -3.1741    3.0259 H       1  UNL1        0.0660
@<TRIPOS>BOND
     1     1    24    1
     2     2    24    1
     3     3    24    1
     4     4    11    1
     5     4    17    1
     6     5    18    1
     7     5    25    1
     8     6    19    1
     9     6    26    1
    10     7    18    2
    11     8    17   ar
    12     8    21   ar
    13     9    10   ar
    14     9    11    1
    15     9    12   ar
    16    10    13   ar
    17    10    14    1
    18    11    27    1
    19    11    28    1
    20    12    15   ar
    21    12    29    1
    22    13    16   ar
    23    13    30    1
    24    14    18    1
    25    14    19    2
    26    15    16   ar
    27    15    31    1
    28    16    32    1
    29    17    20   ar
    30    19    33    1
    31    20    23   ar
    32    20    34    1
    33    21    22   ar
    34    21    24    1
    35    22    23   ar
    36    22    35    1
    37    23    36    1
    38    25    37    1
    39    25    38    1
    40    25    39    1
    41    26    40    1
    42    26    41    1
    43    26    42    1
