@<TRIPOS>MOLECULE
*****
 51 53 0 0 0
SMALL
GASTEIGER

@<TRIPOS>ATOM
      1 O           0.5749    1.0433   -0.6646 O.3     1  UNL1       -0.4715
      2 O           1.5697   -1.1652    0.9564 O.3     1  UNL1       -0.2731
      3 O           2.4975   -3.2116   -0.2058 O.3     1  UNL1       -0.4519
      4 O           4.3421   -2.1691   -1.0235 O.2     1  UNL1       -0.2236
      5 N          -1.0946   -0.5148   -1.1968 N.ar    1  UNL1       -0.2355
      6 N          -2.3974   -0.7983   -1.0326 N.ar    1  UNL1       -0.1681
      7 N           2.8493   -1.0156    0.3634 N.am    1  UNL1       -0.1136
      8 C          -1.8540    1.2012   -0.0600 C.ar    1  UNL1        0.0383
      9 C          -0.7017    0.6537   -0.6012 C.ar    1  UNL1        0.2168
     10 C          -2.8781    0.2316   -0.3206 C.ar    1  UNL1        0.0993
     11 C           1.1281    1.5347    0.5562 C.3     1  UNL1        0.1181
     12 C           2.6410    1.4871    0.4745 C.ar    1  UNL1        0.0135
     13 C          -4.2889    0.2653    0.0664 C.ar    1  UNL1        0.0025
     14 C          -2.0061    2.5172    0.6084 C.3     1  UNL1       -0.0326
     15 C           3.4037    0.3006    0.3258 C.ar    1  UNL1        0.0740
     16 C          -0.2636   -1.4509   -1.9145 C.3     1  UNL1        0.0338
     17 C           3.3054    2.7370    0.4700 C.ar    1  UNL1       -0.0535
     18 C          -4.6720    0.6192    1.3672 C.ar    1  UNL1       -0.0525
     19 C          -5.2800   -0.0785   -0.8633 C.ar    1  UNL1       -0.0525
     20 C           4.7992    0.4312    0.1671 C.ar    1  UNL1       -0.0375
     21 C           4.6860    2.8306    0.3193 C.ar    1  UNL1       -0.0613
     22 C           5.4337    1.6757    0.1640 C.ar    1  UNL1       -0.0599
     23 C          -6.0228    0.6484    1.7242 C.ar    1  UNL1       -0.0611
     24 C          -6.6299   -0.0486   -0.5059 C.ar    1  UNL1       -0.0611
     25 C          -7.0003    0.3180    0.7868 C.ar    1  UNL1       -0.0617
     26 C           3.3217   -2.1228   -0.3422 C.2     1  UNL1        0.4305
     27 C           1.7323   -1.5799    2.3125 C.3     1  UNL1        0.0630
     28 C           2.9177   -4.3697   -0.9265 C.3     1  UNL1        0.0833
     29 H           0.7736    0.9883    1.4374 H       1  UNL1        0.0749
     30 H           0.7995    2.5725    0.6850 H       1  UNL1        0.0749
     31 H          -3.0300    2.8946    0.5288 H       1  UNL1        0.0280
     32 H          -1.3570    3.2675    0.1459 H       1  UNL1        0.0280
     33 H          -1.7476    2.4389    1.6689 H       1  UNL1        0.0280
     34 H           0.7128   -1.0080   -2.1210 H       1  UNL1        0.0474
     35 H          -0.7567   -1.6985   -2.8583 H       1  UNL1        0.0474
     36 H          -0.1490   -2.3464   -1.2989 H       1  UNL1        0.0474
     37 H           2.7368    3.6611    0.5642 H       1  UNL1        0.0622
     38 H          -3.9229    0.8568    2.1175 H       1  UNL1        0.0624
     39 H          -4.9980   -0.3741   -1.8719 H       1  UNL1        0.0624
     40 H           5.4375   -0.4445    0.0728 H       1  UNL1        0.0637
     41 H           5.1716    3.8028    0.3120 H       1  UNL1        0.0618
     42 H           6.5123    1.7333    0.0423 H       1  UNL1        0.0618
     43 H          -6.3111    0.9207    2.7361 H       1  UNL1        0.0618
     44 H          -7.3885   -0.3169   -1.2363 H       1  UNL1        0.0618
     45 H          -8.0506    0.3368    1.0657 H       1  UNL1        0.0618
     46 H           2.2613   -2.5358    2.3723 H       1  UNL1        0.0547
     47 H           2.2684   -0.8170    2.8857 H       1  UNL1        0.0547
     48 H           0.7378   -1.7057    2.7489 H       1  UNL1        0.0547
     49 H           2.9485   -4.1630   -2.0008 H       1  UNL1        0.0661
     50 H           3.8927   -4.7126   -0.5669 H       1  UNL1        0.0661
     51 H           2.1857   -5.1624   -0.7488 H       1  UNL1        0.0661
@<TRIPOS>BOND
     1     1     9    1
     2     1    11    1
     3     2     7    1
     4     2    27    1
     5     3    26    1
     6     3    28    1
     7     4    26    2
     8     5     6   ar
     9     5     9   ar
    10     5    16    1
    11     6    10   ar
    12     7    15    1
    13     7    26   am
    14     8     9   ar
    15     8    10   ar
    16     8    14    1
    17    10    13    1
    18    11    12    1
    19    11    29    1
    20    11    30    1
    21    12    15   ar
    22    12    17   ar
    23    13    18   ar
    24    13    19   ar
    25    14    31    1
    26    14    32    1
    27    14    33    1
    28    15    20   ar
    29    16    34    1
    30    16    35    1
    31    16    36    1
    32    17    21   ar
    33    17    37    1
    34    18    23   ar
    35    18    38    1
    36    19    24   ar
    37    19    39    1
    38    20    22   ar
    39    20    40    1
    40    21    22   ar
    41    21    41    1
    42    22    42    1
    43    23    25   ar
    44    23    43    1
    45    24    25   ar
    46    24    44    1
    47    25    45    1
    48    27    46    1
    49    27    47    1
    50    27    48    1
    51    28    49    1
    52    28    50    1
    53    28    51    1
