REMARK  7 active torsions:
REMARK  status: ('A' for Active; 'I' for Inactive)
REMARK    1  A    between atoms: O_1  and  C_9 
REMARK    2  A    between atoms: O_1  and  C_11 
REMARK    3  A    between atoms: O_2  and  N_7 
REMARK    4  A    between atoms: O_3  and  C_43 
REMARK    5  A    between atoms: N_7  and  C_20 
REMARK       I    between atoms: N_7  and  C_43 
REMARK    6  A    between atoms: C_10  and  C_15 
REMARK    7  A    between atoms: C_11  and  C_14 
ROOT
ATOM      1  O   UNL d   1       0.575   1.043  -0.665  0.00  0.00    -0.330 OA
ENDROOT
BRANCH   1   2
ATOM      2  C   UNL d   1      -0.702   0.654  -0.601  0.00  0.00     0.169 A 
ATOM      3  N   UNL d   1      -1.095  -0.515  -1.197  0.00  0.00    -0.252 N 
ATOM      4  N   UNL d   1      -2.397  -0.798  -1.033  0.00  0.00    -0.170 NA
ATOM      5  C   UNL d   1      -0.264  -1.451  -1.915  0.00  0.00     0.182 C 
ATOM      6  C   UNL d   1      -2.878   0.232  -0.321  0.00  0.00     0.097 A 
ATOM      7  C   UNL d   1      -1.854   1.201  -0.060  0.00  0.00     0.022 A 
ATOM      8  C   UNL d   1      -2.006   2.517   0.608  0.00  0.00     0.055 C 
BRANCH   6   9
ATOM      9  C   UNL d   1      -4.289   0.265   0.066  0.00  0.00    -0.005 A 
ATOM     10  C   UNL d   1      -4.672   0.619   1.367  0.00  0.00     0.014 A 
ATOM     11  C   UNL d   1      -6.023   0.648   1.724  0.00  0.00     0.001 A 
ATOM     12  C   UNL d   1      -7.000   0.318   0.787  0.00  0.00     0.000 A 
ATOM     13  C   UNL d   1      -6.630  -0.049  -0.506  0.00  0.00     0.001 A 
ATOM     14  C   UNL d   1      -5.280  -0.079  -0.863  0.00  0.00     0.014 A 
ENDBRANCH   6   9
ENDBRANCH   1   2
BRANCH   1  15
ATOM     15  C   UNL d   1       1.128   1.535   0.556  0.00  0.00     0.218 C 
BRANCH  15  16
ATOM     16  C   UNL d   1       2.641   1.487   0.474  0.00  0.00    -0.005 A 
ATOM     17  C   UNL d   1       3.404   0.301   0.326  0.00  0.00     0.077 A 
ATOM     18  C   UNL d   1       4.799   0.431   0.167  0.00  0.00     0.033 A 
ATOM     19  C   UNL d   1       5.434   1.676   0.164  0.00  0.00     0.002 A 
ATOM     20  C   UNL d   1       4.686   2.831   0.319  0.00  0.00     0.001 A 
ATOM     21  C   UNL d   1       3.305   2.737   0.470  0.00  0.00     0.012 A 
BRANCH  17  22
ATOM     22  N   UNL d   1       2.849  -1.016   0.363  0.00  0.00    -0.164 N 
ATOM     23  C   UNL d   1       3.322  -2.123  -0.342  0.00  0.00     0.391 C 
ATOM     24  O   UNL d   1       4.342  -2.169  -1.024  0.00  0.00    -0.236 OA
BRANCH  22  25
ATOM     25  O   UNL d   1       1.570  -1.165   0.956  0.00  0.00    -0.273 OA
ATOM     26  C   UNL d   1       1.732  -1.580   2.313  0.00  0.00     0.238 C 
ENDBRANCH  22  25
BRANCH  23  27
ATOM     27  O   UNL d   1       2.498  -3.212  -0.206  0.00  0.00    -0.307 OA
ATOM     28  C   UNL d   1       2.918  -4.370  -0.926  0.00  0.00     0.215 C 
ENDBRANCH  23  27
ENDBRANCH  17  22
ENDBRANCH  15  16
ENDBRANCH   1  15
TORSDOF 7
