@<TRIPOS>MOLECULE
*****
 45 47 0 0 0
SMALL
GASTEIGER

@<TRIPOS>ATOM
      1 CL          8.2484   -0.6739   -1.5355 Cl      1  UNL1       -0.0835
      2 O          -0.3610    1.1282    0.2076 O.3     1  UNL1       -0.4705
      3 O          -2.0192   -1.3019    0.0891 O.3     1  UNL1       -0.2731
      4 O          -3.7559   -3.1411    0.0169 O.3     1  UNL1       -0.4519
      5 O          -5.5314   -1.7422   -0.2065 O.2     1  UNL1       -0.2236
      6 N           2.8616    0.2827    0.7898 N.ar    1  UNL1       -0.2364
      7 N          -3.3525   -0.8880   -0.1676 N.am    1  UNL1       -0.1136
      8 N           1.8310    0.6418   -0.0156 N.ar    1  UNL1       -0.1287
      9 C          -2.7170    1.5009    0.2783 C.ar    1  UNL1        0.0135
     10 C          -3.5992    0.5185   -0.2368 C.ar    1  UNL1        0.0740
     11 C          -1.4736    1.2029    1.0896 C.3     1  UNL1        0.1181
     12 C          -3.0066    2.8704    0.0711 C.ar    1  UNL1       -0.0535
     13 C          -4.7636    0.9664   -0.8941 C.ar    1  UNL1       -0.0375
     14 C           0.7934    0.7724    0.8042 C.ar    1  UNL1        0.2345
     15 C           4.1596    0.0488    0.2514 C.ar    1  UNL1        0.0655
     16 C          -4.1591    3.2786   -0.5924 C.ar    1  UNL1       -0.0613
     17 C          -5.0437    2.3248   -1.0674 C.ar    1  UNL1       -0.0599
     18 C           2.4569    0.1939    2.1070 C.ar    1  UNL1        0.0349
     19 C           1.1175    0.5079    2.1419 C.ar    1  UNL1        0.0196
     20 C           5.2326   -0.3280    1.0722 C.ar    1  UNL1       -0.0349
     21 C           4.3688    0.1989   -1.1299 C.ar    1  UNL1       -0.0349
     22 C          -4.3155   -1.8968   -0.1296 C.2     1  UNL1        0.4305
     23 C           6.4965   -0.5506    0.5135 C.ar    1  UNL1       -0.0414
     24 C           5.6333   -0.0246   -1.6820 C.ar    1  UNL1       -0.0414
     25 C           6.6914   -0.3983   -0.8582 C.ar    1  UNL1        0.0411
     26 C          -1.3605   -1.5447   -1.1565 C.3     1  UNL1        0.0630
     27 C          -4.6972   -4.2119    0.0804 C.3     1  UNL1        0.0833
     28 H          -1.3140    2.0194    1.8083 H       1  UNL1        0.0749
     29 H          -1.6077    0.2959    1.6898 H       1  UNL1        0.0749
     30 H          -2.3223    3.6332    0.4407 H       1  UNL1        0.0622
     31 H          -5.4693    0.2635   -1.3304 H       1  UNL1        0.0637
     32 H          -4.3631    4.3362   -0.7360 H       1  UNL1        0.0618
     33 H          -5.9470    2.6283   -1.5905 H       1  UNL1        0.0618
     34 H           3.1333   -0.0798    2.9013 H       1  UNL1        0.0832
     35 H           0.4857    0.5329    3.0170 H       1  UNL1        0.0686
     36 H           5.1245   -0.4580    2.1444 H       1  UNL1        0.0639
     37 H           3.5538    0.4917   -1.7910 H       1  UNL1        0.0639
     38 H           7.3247   -0.8426    1.1546 H       1  UNL1        0.0633
     39 H           5.7813    0.0958   -2.7520 H       1  UNL1        0.0633
     40 H          -1.8512   -2.3545   -1.7049 H       1  UNL1        0.0547
     41 H          -1.3383   -0.6386   -1.7698 H       1  UNL1        0.0547
     42 H          -0.3316   -1.8463   -0.9425 H       1  UNL1        0.0547
     43 H          -5.2739   -4.2715   -0.8479 H       1  UNL1        0.0661
     44 H          -5.3592   -4.0910    0.9435 H       1  UNL1        0.0661
     45 H          -4.1403   -5.1452    0.2009 H       1  UNL1        0.0661
@<TRIPOS>BOND
     1     1    25    1
     2     2    11    1
     3     2    14    1
     4     3     7    1
     5     3    26    1
     6     4    22    1
     7     4    27    1
     8     5    22    2
     9     6     8   ar
    10     6    15    1
    11     6    18   ar
    12     7    10    1
    13     7    22   am
    14     8    14   ar
    15     9    10   ar
    16     9    11    1
    17     9    12   ar
    18    10    13   ar
    19    11    28    1
    20    11    29    1
    21    12    16   ar
    22    12    30    1
    23    13    17   ar
    24    13    31    1
    25    14    19   ar
    26    15    20   ar
    27    15    21   ar
    28    16    17   ar
    29    16    32    1
    30    17    33    1
    31    18    19   ar
    32    18    34    1
    33    19    35    1
    34    20    23   ar
    35    20    36    1
    36    21    24   ar
    37    21    37    1
    38    23    25   ar
    39    23    38    1
    40    24    25   ar
    41    24    39    1
    42    26    40    1
    43    26    41    1
    44    26    42    1
    45    27    43    1
    46    27    44    1
    47    27    45    1
