REMARK  7 active torsions:
REMARK  status: ('A' for Active; 'I' for Inactive)
REMARK    1  A    between atoms: O_2  and  C_11 
REMARK    2  A    between atoms: O_2  and  C_18 
REMARK    3  A    between atoms: O_3  and  N_7 
REMARK    4  A    between atoms: O_4  and  C_32 
REMARK    5  A    between atoms: N_6  and  C_19 
REMARK    6  A    between atoms: N_7  and  C_10 
REMARK       I    between atoms: N_7  and  C_32 
REMARK    7  A    between atoms: C_9  and  C_11 
ROOT
ATOM      1 CL   UNL d   1       8.248  -0.674  -1.536  0.00  0.00    -0.084 Cl
ATOM      2  C   UNL d   1       4.160   0.049   0.251  0.00  0.00     0.058 A 
ATOM      3  C   UNL d   1       5.233  -0.328   1.072  0.00  0.00     0.033 A 
ATOM      4  C   UNL d   1       4.369   0.199  -1.130  0.00  0.00     0.033 A 
ATOM      5  C   UNL d   1       6.497  -0.551   0.513  0.00  0.00     0.026 A 
ATOM      6  C   UNL d   1       5.633  -0.025  -1.682  0.00  0.00     0.026 A 
ATOM      7  C   UNL d   1       6.691  -0.398  -0.858  0.00  0.00     0.034 A 
ENDROOT
BRANCH   2   8
ATOM      8  N   UNL d   1       2.862   0.283   0.790  0.00  0.00    -0.243 N 
ATOM      9  N   UNL d   1       1.831   0.642  -0.016  0.00  0.00    -0.142 NA
ATOM     10  C   UNL d   1       0.793   0.772   0.804  0.00  0.00     0.185 A 
ATOM     11  C   UNL d   1       1.117   0.508   2.142  0.00  0.00     0.079 A 
ATOM     12  C   UNL d   1       2.457   0.194   2.107  0.00  0.00     0.123 A 
BRANCH  10  13
ATOM     13  O   UNL d   1      -0.361   1.128   0.208  0.00  0.00    -0.329 OA
BRANCH  13  14
ATOM     14  C   UNL d   1      -1.474   1.203   1.090  0.00  0.00     0.218 C 
BRANCH  14  15
ATOM     15  C   UNL d   1      -2.717   1.501   0.278  0.00  0.00    -0.005 A 
ATOM     16  C   UNL d   1      -3.599   0.518  -0.237  0.00  0.00     0.077 A 
ATOM     17  C   UNL d   1      -4.764   0.966  -0.894  0.00  0.00     0.033 A 
ATOM     18  C   UNL d   1      -5.044   2.325  -1.067  0.00  0.00     0.002 A 
ATOM     19  C   UNL d   1      -4.159   3.279  -0.592  0.00  0.00     0.001 A 
ATOM     20  C   UNL d   1      -3.007   2.870   0.071  0.00  0.00     0.012 A 
BRANCH  16  21
ATOM     21  N   UNL d   1      -3.353  -0.888  -0.168  0.00  0.00    -0.164 N 
ATOM     22  C   UNL d   1      -4.316  -1.897  -0.130  0.00  0.00     0.391 C 
ATOM     23  O   UNL d   1      -5.531  -1.742  -0.206  0.00  0.00    -0.236 OA
BRANCH  21  24
ATOM     24  O   UNL d   1      -2.019  -1.302   0.089  0.00  0.00    -0.273 OA
ATOM     25  C   UNL d   1      -1.361  -1.545  -1.157  0.00  0.00     0.238 C 
ENDBRANCH  21  24
BRANCH  22  26
ATOM     26  O   UNL d   1      -3.756  -3.141   0.017  0.00  0.00    -0.307 OA
ATOM     27  C   UNL d   1      -4.697  -4.212   0.080  0.00  0.00     0.215 C 
ENDBRANCH  22  26
ENDBRANCH  16  21
ENDBRANCH  14  15
ENDBRANCH  13  14
ENDBRANCH  10  13
ENDBRANCH   2   8
TORSDOF 7
