REMARK  8 active torsions:
REMARK  status: ('A' for Active; 'I' for Inactive)
REMARK    1  A    between atoms: O_2  and  C_9 
REMARK    2  A    between atoms: O_2  and  C_12 
REMARK    3  A    between atoms: O_3  and  C_39 
REMARK    4  A    between atoms: O_4  and  C_40 
REMARK    5  A    between atoms: C_8  and  C_9 
REMARK    6  A    between atoms: C_13  and  C_22 
REMARK    7  A    between atoms: C_14  and  C_19 
REMARK    8  A    between atoms: C_22  and  C_39 
ROOT
ATOM      1 CL   UNL d   1       8.397  -1.571  -0.122  0.00  0.00    -0.084 Cl
ATOM      2  C   UNL d   1       4.175   0.070  -0.096  0.00  0.00    -0.005 A 
ATOM      3  C   UNL d   1       4.412  -1.294  -0.325  0.00  0.00     0.015 A 
ATOM      4  C   UNL d   1       5.276   0.913   0.132  0.00  0.00     0.015 A 
ATOM      5  C   UNL d   1       5.717  -1.800  -0.332  0.00  0.00     0.024 A 
ATOM      6  C   UNL d   1       6.580   0.409   0.123  0.00  0.00     0.024 A 
ATOM      7  C   UNL d   1       6.794  -0.946  -0.110  0.00  0.00     0.034 A 
ENDROOT
BRANCH   2   8
ATOM      8  C   UNL d   1       2.813   0.615  -0.094  0.00  0.00     0.091 A 
ATOM      9  N   UNL d   1       2.533   1.799   0.474  0.00  0.00    -0.170 NA
ATOM     10  N   UNL d   1       1.211   1.966   0.278  0.00  0.00    -0.252 N 
ATOM     11  C   UNL d   1       0.618   0.938  -0.405  0.00  0.00     0.163 A 
ATOM     12  C   UNL d   1       0.561   3.143   0.802  0.00  0.00     0.182 C 
ATOM     13  C   UNL d   1       1.636   0.044  -0.655  0.00  0.00     0.091 A 
BRANCH  11  14
ATOM     14  O   UNL d   1      -0.687   0.978  -0.678  0.00  0.00    -0.330 OA
BRANCH  14  15
ATOM     15  C   UNL d   1      -1.238  -0.174  -1.311  0.00  0.00     0.217 C 
BRANCH  15  16
ATOM     16  C   UNL d   1      -2.724   0.048  -1.471  0.00  0.00    -0.023 A 
ATOM     17  C   UNL d   1      -3.626  -0.099  -0.395  0.00  0.00    -0.010 A 
ATOM     18  C   UNL d   1      -4.994   0.150  -0.601  0.00  0.00     0.013 A 
ATOM     19  C   UNL d   1      -5.468   0.541  -1.853  0.00  0.00     0.001 A 
ATOM     20  C   UNL d   1      -4.580   0.694  -2.913  0.00  0.00     0.001 A 
ATOM     21  C   UNL d   1      -3.219   0.454  -2.724  0.00  0.00     0.010 A 
BRANCH  17  22
ATOM     22  C   UNL d   1      -3.189  -0.502   0.957  0.00  0.00     0.072 C 
ATOM     23  C   UNL d   1      -2.921   0.414   1.905  0.00  0.00     0.152 C 
BRANCH  22  24
ATOM     24  C   UNL d   1      -3.038  -1.932   1.353  0.00  0.00     0.295 C 
ATOM     25  O   UNL d   1      -2.733  -2.311   2.476  0.00  0.00    -0.259 OA
BRANCH  24  26
ATOM     26  O   UNL d   1      -3.282  -2.746   0.293  0.00  0.00    -0.322 OA
ATOM     27  C   UNL d   1      -3.176  -4.138   0.589  0.00  0.00     0.213 C 
ENDBRANCH  24  26
ENDBRANCH  22  24
BRANCH  23  28
ATOM     28  O   UNL d   1      -3.007   1.769   1.703  0.00  0.00    -0.367 OA
ATOM     29  C   UNL d   1      -3.119   2.492   2.925  0.00  0.00     0.208 C 
ENDBRANCH  23  28
ENDBRANCH  17  22
ENDBRANCH  15  16
ENDBRANCH  14  15
ENDBRANCH  11  14
ENDBRANCH   2   8
TORSDOF 8
