@<TRIPOS>MOLECULE
*****
 50 52 0 0 0
SMALL
GASTEIGER

@<TRIPOS>ATOM
      1 CL          8.3971   -1.5707   -0.1221 Cl      1  UNL1       -0.0835
      2 O          -0.6865    0.9775   -0.6785 O.3     1  UNL1       -0.4717
      3 O          -3.2823   -2.7459    0.2929 O.3     1  UNL1       -0.4644
      4 O          -3.0070    1.7687    1.7028 O.2     1  UNL1       -0.5018
      5 O          -2.7330   -2.3111    2.4756 O.2     1  UNL1       -0.2448
      6 N           1.2114    1.9655    0.2781 N.ar    1  UNL1       -0.2357
      7 N           2.5326    1.7989    0.4743 N.ar    1  UNL1       -0.1684
      8 C          -2.7242    0.0476   -1.4710 C.ar    1  UNL1       -0.0023
      9 C          -1.2381   -0.1737   -1.3108 C.3     1  UNL1        0.1168
     10 C           0.6184    0.9382   -0.4052 C.ar    1  UNL1        0.2138
     11 C          -3.6257   -0.0989   -0.3948 C.ar    1  UNL1       -0.0017
     12 C           2.8132    0.6148   -0.0938 C.ar    1  UNL1        0.0964
     13 C           1.6363    0.0439   -0.6553 C.ar    1  UNL1        0.0273
     14 C          -3.2191    0.4543   -2.7236 C.ar    1  UNL1       -0.0548
     15 C           4.1751    0.0700   -0.0959 C.ar    1  UNL1        0.0023
     16 C          -4.9936    0.1503   -0.6005 C.ar    1  UNL1       -0.0533
     17 C          -3.1890   -0.5018    0.9567 C.2     1  UNL1        0.1005
     18 C          -4.5803    0.6937   -2.9132 C.ar    1  UNL1       -0.0614
     19 C           0.5609    3.1427    0.8017 C.3     1  UNL1        0.0338
     20 C          -5.4675    0.5407   -1.8529 C.ar    1  UNL1       -0.0612
     21 C           4.4118   -1.2942   -0.3250 C.ar    1  UNL1       -0.0511
     22 C           5.2756    0.9128    0.1317 C.ar    1  UNL1       -0.0511
     23 C           5.7167   -1.8004   -0.3318 C.ar    1  UNL1       -0.0428
     24 C           6.5801    0.4091    0.1227 C.ar    1  UNL1       -0.0428
     25 C          -3.0376   -1.9321    1.3531 C.2     1  UNL1        0.3425
     26 C          -2.9213    0.4136    1.9053 C.2     1  UNL1        0.0986
     27 C           6.7943   -0.9461   -0.1100 C.ar    1  UNL1        0.0410
     28 C          -3.1765   -4.1380    0.5891 C.3     1  UNL1        0.0820
     29 C          -3.1189    2.4921    2.9247 C.3     1  UNL1        0.0780
     30 H          -1.0510   -1.0773   -0.7179 H       1  UNL1        0.0748
     31 H          -0.7714   -0.3189   -2.2937 H       1  UNL1        0.0748
     32 H           1.5531   -0.8927   -1.1851 H       1  UNL1        0.0693
     33 H          -2.5394    0.5963   -3.5615 H       1  UNL1        0.0622
     34 H          -5.6989    0.0476    0.2215 H       1  UNL1        0.0624
     35 H          -4.9459    1.0084   -3.8873 H       1  UNL1        0.0618
     36 H          -0.3419    3.3540    0.2240 H       1  UNL1        0.0474
     37 H           1.2471    3.9902    0.7235 H       1  UNL1        0.0474
     38 H           0.3078    2.9525    1.8475 H       1  UNL1        0.0474
     39 H          -6.5273    0.7335   -1.9969 H       1  UNL1        0.0618
     40 H           3.5887   -1.9848   -0.4876 H       1  UNL1        0.0625
     41 H           5.1197    1.9748    0.3154 H       1  UNL1        0.0625
     42 H           5.8825   -2.8601   -0.5069 H       1  UNL1        0.0632
     43 H           7.4163    1.0802    0.2985 H       1  UNL1        0.0632
     44 H          -2.5909    0.1363    2.9005 H       1  UNL1        0.1031
     45 H          -2.1583   -4.3864    0.9044 H       1  UNL1        0.0661
     46 H          -3.9019   -4.4235    1.3575 H       1  UNL1        0.0661
     47 H          -3.4020   -4.6965   -0.3236 H       1  UNL1        0.0661
     48 H          -3.9984    2.1673    3.4912 H       1  UNL1        0.0660
     49 H          -2.2116    2.3781    3.5275 H       1  UNL1        0.0660
     50 H          -3.2379    3.5520    2.6820 H       1  UNL1        0.0660
@<TRIPOS>BOND
     1     1    27    1
     2     2     9    1
     3     2    10    1
     4     3    25    1
     5     3    28    1
     6     4    26    1
     7     4    29    1
     8     5    25    2
     9     6     7   ar
    10     6    10   ar
    11     6    19    1
    12     7    12   ar
    13     8     9    1
    14     8    11   ar
    15     8    14   ar
    16     9    30    1
    17     9    31    1
    18    10    13   ar
    19    11    16   ar
    20    11    17    1
    21    12    13   ar
    22    12    15    1
    23    13    32    1
    24    14    18   ar
    25    14    33    1
    26    15    21   ar
    27    15    22   ar
    28    16    20   ar
    29    16    34    1
    30    17    25    1
    31    17    26    2
    32    18    20   ar
    33    18    35    1
    34    19    36    1
    35    19    37    1
    36    19    38    1
    37    20    39    1
    38    21    23   ar
    39    21    40    1
    40    22    24   ar
    41    22    41    1
    42    23    27   ar
    43    23    42    1
    44    24    27   ar
    45    24    43    1
    46    26    44    1
    47    28    45    1
    48    28    46    1
    49    28    47    1
    50    29    48    1
    51    29    49    1
    52    29    50    1
