@<TRIPOS>MOLECULE
*****
 45 46 0 0 0
SMALL
GASTEIGER

@<TRIPOS>ATOM
      1 CL          5.1985    2.9950    0.4776 Cl      1  UNL1       -0.0832
      2 O          -2.3902    0.2948   -0.1824 O.2     1  UNL1       -0.3872
      3 O           5.8517   -2.3991    0.7367 O.3     1  UNL1       -0.4537
      4 O           4.2815   -2.4068   -0.9320 O.2     1  UNL1       -0.2265
      5 N           5.4355   -0.5141   -0.3395 N.am    1  UNL1       -0.2770
      6 N          -1.2185    1.0541   -0.0338 N.2     1  UNL1       -0.0890
      7 N          -5.5210   -0.0311    1.0114 N.ar    1  UNL1       -0.2533
      8 C           3.5726    1.0377   -0.5416 C.ar    1  UNL1       -0.0113
      9 C           1.1845    0.9543   -0.0152 C.ar    1  UNL1       -0.0005
     10 C           2.3098    0.4197   -0.6537 C.ar    1  UNL1       -0.0467
     11 C           4.7538    0.3945   -1.2238 C.3     1  UNL1        0.0414
     12 C           3.6843    2.1991    0.2381 C.ar    1  UNL1        0.0457
     13 C           1.3125    2.1310    0.7295 C.ar    1  UNL1       -0.0514
     14 C          -0.1564    0.3056   -0.1235 C.2     1  UNL1        0.0841
     15 C           2.5589    2.7467    0.8604 C.ar    1  UNL1       -0.0425
     16 C          -0.2169   -1.1953   -0.3338 C.3     1  UNL1       -0.0186
     17 C          -4.7829    0.3172   -0.0750 C.ar    1  UNL1        0.0814
     18 C          -3.5175    1.1051    0.1599 C.3     1  UNL1        0.1595
     19 C          -6.6482   -0.7545    0.8123 C.ar    1  UNL1        0.0387
     20 C          -5.1546   -0.0353   -1.3704 C.ar    1  UNL1       -0.0369
     21 C          -7.0791   -1.1377   -0.4530 C.ar    1  UNL1       -0.0406
     22 C          -6.3203   -0.7696   -1.5583 C.ar    1  UNL1       -0.0583
     23 C           5.1130   -1.8312   -0.2464 C.2     1  UNL1        0.4003
     24 C          -7.4336   -1.1483    2.0269 C.3     1  UNL1       -0.0223
     25 C           5.5899   -3.7897    0.9286 C.3     1  UNL1        0.0833
     26 H           2.2226   -0.4845   -1.2547 H       1  UNL1        0.0628
     27 H           4.4231   -0.1442   -2.1203 H       1  UNL1        0.0513
     28 H           5.4761    1.1414   -1.5675 H       1  UNL1        0.0513
     29 H           0.4467    2.5670    1.2240 H       1  UNL1        0.0624
     30 H           2.6445    3.6521    1.4568 H       1  UNL1        0.0632
     31 H           6.0689   -0.1568    0.3614 H       1  UNL1        0.1523
     32 H           0.7253   -1.6840   -0.0748 H       1  UNL1        0.0294
     33 H          -0.9862   -1.6349    0.3083 H       1  UNL1        0.0294
     34 H          -0.4585   -1.4030   -1.3799 H       1  UNL1        0.0294
     35 H          -3.4444    1.3959    1.2142 H       1  UNL1        0.0790
     36 H          -3.5292    2.0124   -0.4558 H       1  UNL1        0.0790
     37 H          -4.5414    0.2514   -2.2190 H       1  UNL1        0.0637
     38 H          -7.9875   -1.7174   -0.5793 H       1  UNL1        0.0635
     39 H          -6.6308   -1.0586   -2.5581 H       1  UNL1        0.0619
     40 H          -6.9591   -0.7690    2.9377 H       1  UNL1        0.0292
     41 H          -8.4463   -0.7372    1.9731 H       1  UNL1        0.0292
     42 H          -7.4906   -2.2387    2.1022 H       1  UNL1        0.0292
     43 H           6.2364   -4.1480    1.7345 H       1  UNL1        0.0661
     44 H           4.5480   -3.9466    1.2251 H       1  UNL1        0.0661
     45 H           5.8246   -4.3537    0.0203 H       1  UNL1        0.0661
@<TRIPOS>BOND
     1     1    12    1
     2     2     6    1
     3     2    18    1
     4     3    23    1
     5     3    25    1
     6     4    23    2
     7     5    11    1
     8     5    23   am
     9     5    31    1
    10     6    14    2
    11     7    17   ar
    12     7    19   ar
    13     8    10   ar
    14     8    11    1
    15     8    12   ar
    16     9    10   ar
    17     9    13   ar
    18     9    14    1
    19    10    26    1
    20    11    27    1
    21    11    28    1
    22    12    15   ar
    23    13    15   ar
    24    13    29    1
    25    14    16    1
    26    15    30    1
    27    16    32    1
    28    16    33    1
    29    16    34    1
    30    17    18    1
    31    17    20   ar
    32    18    35    1
    33    18    36    1
    34    19    21   ar
    35    19    24    1
    36    20    22   ar
    37    20    37    1
    38    21    22   ar
    39    21    38    1
    40    22    39    1
    41    24    40    1
    42    24    41    1
    43    24    42    1
    44    25    43    1
    45    25    44    1
    46    25    45    1
