REMARK  7 active torsions:
REMARK  status: ('A' for Active; 'I' for Inactive)
REMARK    1  A    between atoms: O_2  and  N_6 
REMARK    2  A    between atoms: O_2  and  C_26 
REMARK    3  A    between atoms: O_3  and  C_36 
REMARK    4  A    between atoms: N_5  and  C_12 
REMARK       I    between atoms: N_5  and  C_36 
REMARK    5  A    between atoms: C_8  and  C_12 
REMARK    6  A    between atoms: C_9  and  C_18 
REMARK    7  A    between atoms: C_25  and  C_26 
ROOT
ATOM      1 CL   UNL d   1       5.199   2.995   0.478  0.00  0.00    -0.084 Cl
ATOM      2  C   UNL d   1       3.573   1.038  -0.542  0.00  0.00    -0.018 A 
ATOM      3  C   UNL d   1       1.185   0.954  -0.015  0.00  0.00    -0.009 A 
ATOM      4  C   UNL d   1       2.310   0.420  -0.654  0.00  0.00     0.024 A 
ATOM      5  C   UNL d   1       3.684   2.199   0.238  0.00  0.00     0.042 A 
ATOM      6  C   UNL d   1       1.313   2.131   0.730  0.00  0.00     0.015 A 
ATOM      7  C   UNL d   1       2.559   2.747   0.860  0.00  0.00     0.025 A 
ENDROOT
BRANCH   2   8
ATOM      8  C   UNL d   1       4.754   0.395  -1.224  0.00  0.00     0.165 C 
BRANCH   8   9
ATOM      9  N   UNL d   1       5.436  -0.514  -0.340  0.00  0.00    -0.333 N 
ATOM     10  C   UNL d   1       5.113  -1.831  -0.246  0.00  0.00     0.360 C 
ATOM     11  O   UNL d   1       4.282  -2.407  -0.932  0.00  0.00    -0.239 OA
ATOM     12  H   UNL d   1       6.069  -0.157   0.361  0.00  0.00     0.165 HD
BRANCH  10  13
ATOM     13  O   UNL d   1       5.852  -2.399   0.737  0.00  0.00    -0.309 OA
ATOM     14  C   UNL d   1       5.590  -3.790   0.929  0.00  0.00     0.215 C 
ENDBRANCH  10  13
ENDBRANCH   8   9
ENDBRANCH   2   8
BRANCH   3  15
ATOM     15  C   UNL d   1      -0.156   0.306  -0.124  0.00  0.00     0.068 C 
ATOM     16  N   UNL d   1      -1.218   1.054  -0.034  0.00  0.00    -0.138 NA
ATOM     17  C   UNL d   1      -0.217  -1.195  -0.334  0.00  0.00     0.074 C 
BRANCH  16  18
ATOM     18  O   UNL d   1      -2.390   0.295  -0.182  0.00  0.00    -0.250 OA
BRANCH  18  19
ATOM     19  C   UNL d   1      -3.518   1.105   0.160  0.00  0.00     0.263 C 
BRANCH  19  20
ATOM     20  C   UNL d   1      -4.783   0.317  -0.075  0.00  0.00     0.061 A 
ATOM     21  N   UNL d   1      -5.521  -0.031   1.011  0.00  0.00    -0.256 NA
ATOM     22  C   UNL d   1      -6.648  -0.754   0.812  0.00  0.00     0.031 A 
ATOM     23  C   UNL d   1      -7.079  -1.138  -0.453  0.00  0.00     0.027 A 
ATOM     24  C   UNL d   1      -7.434  -1.148   2.027  0.00  0.00     0.070 C 
ATOM     25  C   UNL d   1      -6.320  -0.770  -1.558  0.00  0.00     0.004 A 
ATOM     26  C   UNL d   1      -5.155  -0.035  -1.370  0.00  0.00     0.029 A 
ENDBRANCH  19  20
ENDBRANCH  18  19
ENDBRANCH  16  18
ENDBRANCH   3  15
TORSDOF 7
