@<TRIPOS>MOLECULE
*****
 37 38 0 0 0
SMALL
GASTEIGER

@<TRIPOS>ATOM
      1 CL         -1.2627    1.6768   -2.1982 Cl      1  UNL1       -0.0780
      2 CL         -5.9954    0.8608    0.1913 Cl      1  UNL1       -0.0804
      3 CL         -4.6790   -1.8053    1.5752 Cl      1  UNL1       -0.0603
      4 O          -0.4839   -0.8142   -0.7693 O.3     1  UNL1       -0.4705
      5 O           0.7595    0.7633    1.2669 O.3     1  UNL1       -0.2731
      6 O           1.7539    2.9672    0.5108 O.3     1  UNL1       -0.4519
      7 O           3.4292    2.0315   -0.7075 O.2     1  UNL1       -0.2236
      8 N           1.9618    0.6817    0.5166 N.am    1  UNL1       -0.1136
      9 N          -2.5363   -1.1832    0.3077 N.ar    1  UNL1       -0.1985
     10 C           1.5513   -1.7507    0.0535 C.ar    1  UNL1        0.0135
     11 C           2.4035   -0.6196    0.1273 C.ar    1  UNL1        0.0740
     12 C           0.0460   -1.6928    0.2227 C.3     1  UNL1        0.1181
     13 C           2.1023   -3.0095   -0.2792 C.ar    1  UNL1       -0.0535
     14 C           3.7697   -0.8030   -0.1666 C.ar    1  UNL1       -0.0375
     15 C           3.4594   -3.1605   -0.5503 C.ar    1  UNL1       -0.0613
     16 C           4.2928   -2.0547   -0.5001 C.ar    1  UNL1       -0.0599
     17 C          -1.7775   -0.4179   -0.5125 C.ar    1  UNL1        0.2354
     18 C           2.4652    1.8917    0.0405 C.2     1  UNL1        0.4305
     19 C          -2.2504    0.7277   -1.1537 C.ar    1  UNL1        0.1038
     20 C          -3.5680    1.1207   -0.9277 C.ar    1  UNL1       -0.0169
     21 C           1.0866    0.8128    2.6557 C.3     1  UNL1        0.0630
     22 C          -4.3698    0.3597   -0.0795 C.ar    1  UNL1        0.0793
     23 C          -3.8108   -0.7726    0.5072 C.ar    1  UNL1        0.1513
     24 C           2.1994    4.2305    0.0191 C.3     1  UNL1        0.0833
     25 H          -0.3900   -2.6883    0.0672 H       1  UNL1        0.0749
     26 H          -0.1957   -1.3912    1.2487 H       1  UNL1        0.0749
     27 H           1.4617   -3.8872   -0.3517 H       1  UNL1        0.0622
     28 H           4.4711    0.0264   -0.1102 H       1  UNL1        0.0637
     29 H           3.8597   -4.1363   -0.8124 H       1  UNL1        0.0618
     30 H           5.3533   -2.1580   -0.7155 H       1  UNL1        0.0618
     31 H          -3.9634    2.0114   -1.4083 H       1  UNL1        0.0649
     32 H           1.5929   -0.1071    2.9643 H       1  UNL1        0.0547
     33 H           1.7126    1.6812    2.8825 H       1  UNL1        0.0547
     34 H           0.1540    0.9006    3.2195 H       1  UNL1        0.0547
     35 H           1.5520    5.0047    0.4404 H       1  UNL1        0.0661
     36 H           2.1185    4.2694   -1.0717 H       1  UNL1        0.0661
     37 H           3.2267    4.4268    0.3414 H       1  UNL1        0.0661
@<TRIPOS>BOND
     1     1    19    1
     2     2    22    1
     3     3    23    1
     4     4    12    1
     5     4    17    1
     6     5     8    1
     7     5    21    1
     8     6    18    1
     9     6    24    1
    10     7    18    2
    11     8    11    1
    12     8    18   am
    13     9    17   ar
    14     9    23   ar
    15    10    11   ar
    16    10    12    1
    17    10    13   ar
    18    11    14   ar
    19    12    25    1
    20    12    26    1
    21    13    15   ar
    22    13    27    1
    23    14    16   ar
    24    14    28    1
    25    15    16   ar
    26    15    29    1
    27    16    30    1
    28    17    19   ar
    29    19    20   ar
    30    20    22   ar
    31    20    31    1
    32    21    32    1
    33    21    33    1
    34    21    34    1
    35    22    23   ar
    36    24    35    1
    37    24    36    1
    38    24    37    1
