REMARK  6 active torsions:
REMARK  status: ('A' for Active; 'I' for Inactive)
REMARK    1  A    between atoms: O_4  and  C_12 
REMARK    2  A    between atoms: O_4  and  C_23 
REMARK    3  A    between atoms: O_5  and  N_8 
REMARK    4  A    between atoms: O_6  and  C_24 
REMARK    5  A    between atoms: N_8  and  C_11 
REMARK       I    between atoms: N_8  and  C_24 
REMARK    6  A    between atoms: C_10  and  C_12 
ROOT
ATOM      1 CL   UNL d   1      -1.263   1.677  -2.198  0.00  0.00    -0.080 Cl
ATOM      2 CL   UNL d   1      -5.995   0.861   0.191  0.00  0.00    -0.081 Cl
ATOM      3 CL   UNL d   1      -4.679  -1.805   1.575  0.00  0.00    -0.060 Cl
ATOM      4  N   UNL d   1      -2.536  -1.183   0.308  0.00  0.00    -0.209 NA
ATOM      5  C   UNL d   1      -1.778  -0.418  -0.512  0.00  0.00     0.188 A 
ATOM      6  C   UNL d   1      -2.250   0.728  -1.154  0.00  0.00     0.088 A 
ATOM      7  C   UNL d   1      -3.568   1.121  -0.928  0.00  0.00     0.055 A 
ATOM      8  C   UNL d   1      -4.370   0.360  -0.080  0.00  0.00     0.076 A 
ATOM      9  C   UNL d   1      -3.811  -0.773   0.507  0.00  0.00     0.150 A 
ENDROOT
BRANCH   5  10
ATOM     10  O   UNL d   1      -0.484  -0.814  -0.769  0.00  0.00    -0.328 OA
BRANCH  10  11
ATOM     11  C   UNL d   1       0.046  -1.693   0.223  0.00  0.00     0.218 C 
BRANCH  11  12
ATOM     12  C   UNL d   1       1.551  -1.751   0.053  0.00  0.00    -0.005 A 
ATOM     13  C   UNL d   1       2.404  -0.620   0.127  0.00  0.00     0.077 A 
ATOM     14  C   UNL d   1       3.770  -0.803  -0.167  0.00  0.00     0.033 A 
ATOM     15  C   UNL d   1       4.293  -2.055  -0.500  0.00  0.00     0.002 A 
ATOM     16  C   UNL d   1       3.459  -3.160  -0.550  0.00  0.00     0.001 A 
ATOM     17  C   UNL d   1       2.102  -3.010  -0.279  0.00  0.00     0.012 A 
BRANCH  13  18
ATOM     18  N   UNL d   1       1.962   0.682   0.517  0.00  0.00    -0.164 N 
ATOM     19  C   UNL d   1       2.465   1.892   0.041  0.00  0.00     0.391 C 
ATOM     20  O   UNL d   1       3.429   2.031  -0.708  0.00  0.00    -0.236 OA
BRANCH  18  21
ATOM     21  O   UNL d   1       0.759   0.763   1.267  0.00  0.00    -0.273 OA
ATOM     22  C   UNL d   1       1.087   0.813   2.656  0.00  0.00     0.238 C 
ENDBRANCH  18  21
BRANCH  19  23
ATOM     23  O   UNL d   1       1.754   2.967   0.511  0.00  0.00    -0.307 OA
ATOM     24  C   UNL d   1       2.199   4.231   0.019  0.00  0.00     0.215 C 
ENDBRANCH  19  23
ENDBRANCH  13  18
ENDBRANCH  11  12
ENDBRANCH  10  11
ENDBRANCH   5  10
TORSDOF 6
