@<TRIPOS>MOLECULE
*****
 48 49 0 0 0
SMALL
GASTEIGER

@<TRIPOS>ATOM
      1 F           7.3739   -0.7027    0.2915 F       1  UNL1       -0.1659
      2 F           6.3880    0.5593    1.7619 F       1  UNL1       -0.1659
      3 F           5.8164   -1.5285    1.5646 F       1  UNL1       -0.1659
      4 O          -0.7849    1.1002   -0.4237 O.2     1  UNL1       -0.3888
      5 O          -2.7252   -2.8168   -0.7752 O.3     1  UNL1       -0.4633
      6 O          -2.3262   -0.1417    2.3809 O.2     1  UNL1       -0.3964
      7 O          -4.9805   -2.4741   -0.4368 O.2     1  UNL1       -0.2431
      8 N           0.4444    0.7513   -1.0040 N.2     1  UNL1       -0.0890
      9 N          -2.6336   -1.3091    1.6648 N.2     1  UNL1       -0.0775
     10 C          -3.1540    1.0962   -0.6929 C.ar    1  UNL1        0.0017
     11 C          -3.8558    0.2895    0.2186 C.ar    1  UNL1        0.0171
     12 C          -1.8348    0.6891   -1.2950 C.3     1  UNL1        0.1435
     13 C           2.8191    0.6547   -0.6408 C.ar    1  UNL1       -0.0004
     14 C          -3.6887    2.3577   -1.0065 C.ar    1  UNL1       -0.0546
     15 C           5.1066   -0.0384   -0.1596 C.ar    1  UNL1        0.0554
     16 C           3.8118    0.2949    0.2788 C.ar    1  UNL1       -0.0412
     17 C          -5.0633    0.7201    0.7846 C.ar    1  UNL1       -0.0519
     18 C           1.4355    1.0018   -0.1982 C.2     1  UNL1        0.0841
     19 C           3.1165    0.6614   -2.0087 C.ar    1  UNL1       -0.0528
     20 C          -3.3644   -1.0440    0.6200 C.2     1  UNL1        0.1936
     21 C          -4.8942    2.7868   -0.4451 C.ar    1  UNL1       -0.0614
     22 C          -5.5820    1.9685    0.4482 C.ar    1  UNL1       -0.0611
     23 C           5.3884   -0.0123   -1.5337 C.ar    1  UNL1       -0.0501
     24 C           4.3976    0.3330   -2.4530 C.ar    1  UNL1       -0.0606
     25 C           6.1624   -0.4243    0.8473 C.3     1  UNL1        0.4174
     26 C           1.2514    1.6160    1.1756 C.3     1  UNL1       -0.0186
     27 C          -3.8073   -2.2039   -0.2536 C.2     1  UNL1        0.3613
     28 C          -3.0388   -3.9396   -1.5960 C.3     1  UNL1        0.0820
     29 C          -1.5141   -0.4979    3.4918 C.3     1  UNL1        0.1072
     30 H          -1.7065    1.1686   -2.2738 H       1  UNL1        0.0775
     31 H          -1.7859   -0.3920   -1.4576 H       1  UNL1        0.0775
     32 H          -3.1589    3.0216   -1.6879 H       1  UNL1        0.0622
     33 H           3.5898    0.2464    1.3433 H       1  UNL1        0.0629
     34 H          -5.5963    0.0867    1.4904 H       1  UNL1        0.0624
     35 H           2.3512    0.9256   -2.7360 H       1  UNL1        0.0624
     36 H          -5.2921    3.7663   -0.6999 H       1  UNL1        0.0618
     37 H          -6.5170    2.3059    0.8881 H       1  UNL1        0.0618
     38 H           6.3831   -0.2688   -1.8969 H       1  UNL1        0.0623
     39 H           4.6207    0.3436   -3.5175 H       1  UNL1        0.0618
     40 H           2.1840    2.0309    1.5654 H       1  UNL1        0.0294
     41 H           0.5336    2.4403    1.1280 H       1  UNL1        0.0294
     42 H           0.8790    0.8526    1.8638 H       1  UNL1        0.0294
     43 H          -3.6209   -4.6791   -1.0369 H       1  UNL1        0.0661
     44 H          -3.5803   -3.6168   -2.4907 H       1  UNL1        0.0661
     45 H          -2.0997   -4.4048   -1.9081 H       1  UNL1        0.0661
     46 H          -0.5897   -0.9733    3.1497 H       1  UNL1        0.0687
     47 H          -1.2598    0.4126    4.0405 H       1  UNL1        0.0687
     48 H          -2.0602   -1.1717    4.1591 H       1  UNL1        0.0687
@<TRIPOS>BOND
     1     1    25    1
     2     2    25    1
     3     3    25    1
     4     4     8    1
     5     4    12    1
     6     5    27    1
     7     5    28    1
     8     6     9    1
     9     6    29    1
    10     7    27    2
    11     8    18    2
    12     9    20    2
    13    10    11   ar
    14    10    12    1
    15    10    14   ar
    16    11    17   ar
    17    11    20    1
    18    12    30    1
    19    12    31    1
    20    13    16   ar
    21    13    18    1
    22    13    19   ar
    23    14    21   ar
    24    14    32    1
    25    15    16   ar
    26    15    23   ar
    27    15    25    1
    28    16    33    1
    29    17    22   ar
    30    17    34    1
    31    18    26    1
    32    19    24   ar
    33    19    35    1
    34    20    27    1
    35    21    22   ar
    36    21    36    1
    37    22    37    1
    38    23    24   ar
    39    23    38    1
    40    24    39    1
    41    26    40    1
    42    26    41    1
    43    26    42    1
    44    28    43    1
    45    28    44    1
    46    28    45    1
    47    29    46    1
    48    29    47    1
    49    29    48    1
