REMARK  9 active torsions:
REMARK  status: ('A' for Active; 'I' for Inactive)
REMARK    1  A    between atoms: O_4  and  N_8 
REMARK    2  A    between atoms: O_4  and  C_12 
REMARK    3  A    between atoms: O_5  and  C_40 
REMARK    4  A    between atoms: O_6  and  N_9 
REMARK    5  A    between atoms: C_10  and  C_12 
REMARK    6  A    between atoms: C_11  and  C_26 
REMARK    7  A    between atoms: C_15  and  C_23 
REMARK    8  A    between atoms: C_18  and  C_35 
REMARK    9  A    between atoms: C_26  and  C_40 
ROOT
ATOM      1  F   UNL d   1       7.374  -0.703   0.291  0.00  0.00    -0.166 F 
ATOM      2  F   UNL d   1       6.388   0.559   1.762  0.00  0.00    -0.166 F 
ATOM      3  F   UNL d   1       5.816  -1.529   1.565  0.00  0.00    -0.166 F 
ATOM      4  C   UNL d   1       6.162  -0.424   0.847  0.00  0.00     0.417 C 
ENDROOT
BRANCH   4   5
ATOM      5  C   UNL d   1       5.107  -0.038  -0.160  0.00  0.00     0.048 A 
ATOM      6  C   UNL d   1       3.812   0.295   0.279  0.00  0.00     0.029 A 
ATOM      7  C   UNL d   1       2.819   0.655  -0.641  0.00  0.00    -0.009 A 
ATOM      8  C   UNL d   1       3.116   0.661  -2.009  0.00  0.00     0.013 A 
ATOM      9  C   UNL d   1       4.398   0.333  -2.453  0.00  0.00     0.002 A 
ATOM     10  C   UNL d   1       5.388  -0.012  -1.534  0.00  0.00     0.016 A 
BRANCH   7  11
ATOM     11  C   UNL d   1       1.436   1.002  -0.198  0.00  0.00     0.068 C 
ATOM     12  N   UNL d   1       0.444   0.751  -1.004  0.00  0.00    -0.138 NA
ATOM     13  C   UNL d   1       1.251   1.616   1.176  0.00  0.00     0.074 C 
BRANCH  12  14
ATOM     14  O   UNL d   1      -0.785   1.100  -0.424  0.00  0.00    -0.252 OA
BRANCH  14  15
ATOM     15  C   UNL d   1      -1.835   0.689  -1.295  0.00  0.00     0.243 C 
BRANCH  15  16
ATOM     16  C   UNL d   1      -3.154   1.096  -0.693  0.00  0.00    -0.019 A 
ATOM     17  C   UNL d   1      -3.856   0.289   0.219  0.00  0.00     0.009 A 
ATOM     18  C   UNL d   1      -5.063   0.720   0.785  0.00  0.00     0.014 A 
ATOM     19  C   UNL d   1      -5.582   1.968   0.448  0.00  0.00     0.001 A 
ATOM     20  C   UNL d   1      -4.894   2.787  -0.445  0.00  0.00     0.001 A 
ATOM     21  C   UNL d   1      -3.689   2.358  -1.007  0.00  0.00     0.010 A 
BRANCH  17  22
ATOM     22  C   UNL d   1      -3.364  -1.044   0.620  0.00  0.00     0.169 C 
ATOM     23  N   UNL d   1      -2.634  -1.309   1.665  0.00  0.00    -0.127 NA
BRANCH  23  24
ATOM     24  O   UNL d   1      -2.326  -0.142   2.381  0.00  0.00    -0.261 OA
ATOM     25  C   UNL d   1      -1.514  -0.498   3.492  0.00  0.00     0.240 C 
ENDBRANCH  23  24
BRANCH  22  26
ATOM     26  C   UNL d   1      -3.807  -2.204  -0.254  0.00  0.00     0.314 C 
ATOM     27  O   UNL d   1      -4.981  -2.474  -0.437  0.00  0.00    -0.257 OA
BRANCH  26  28
ATOM     28  O   UNL d   1      -2.725  -2.817  -0.775  0.00  0.00    -0.321 OA
ATOM     29  C   UNL d   1      -3.039  -3.940  -1.596  0.00  0.00     0.213 C 
ENDBRANCH  26  28
ENDBRANCH  22  26
ENDBRANCH  17  22
ENDBRANCH  15  16
ENDBRANCH  14  15
ENDBRANCH  12  14
ENDBRANCH   7  11
ENDBRANCH   4   5
TORSDOF 9
